/*--------------------------------*- C++ -*----------------------------------*\
| =========                 |                                                 |
| \\      /  F ield         | OpenFOAM: The Open Source CFD Toolbox           |
|  \\    /   O peration     | Version:  v1806                                 |
|   \\  /    A nd           | Web:      www.OpenFOAM.com                      |
|    \\/     M anipulation  |                                                 |
\*---------------------------------------------------------------------------*/
FoamFile
{
    version     2.0;
    format      ascii;
    class       labelListList;
    location    "constant";
    object      connectivity;
}
// * * * * * * * * * * * * * * * * * * * * * * * * * * * * * * * * * * * * * //


1152
(
3(2 74 253)
3(74 252 253)
3(74 75 252)
3(253 252 163)
3(75 254 252)
3(254 255 252)
3(254 162 255)
3(252 255 163)
3(75 76 254)
3(76 256 254)
3(76 77 256)
3(254 256 162)
3(163 255 258)
3(255 257 258)
3(255 162 257)
3(258 257 146)
3(3 259 108)
3(259 260 108)
3(259 164 260)
3(108 260 107)
3(164 261 260)
3(261 262 260)
3(261 165 262)
3(260 262 107)
3(164 263 261)
3(263 264 261)
3(263 144 264)
3(261 264 165)
3(107 262 106)
3(262 265 106)
3(262 165 265)
3(106 265 105)
3(2 266 143)
3(266 267 143)
3(266 166 267)
3(143 267 142)
3(166 268 267)
3(268 269 267)
3(268 167 269)
3(267 269 142)
3(166 270 268)
3(270 271 268)
3(270 145 271)
3(268 271 167)
3(142 269 141)
3(269 272 141)
3(269 167 272)
3(141 272 140)
3(77 78 274)
3(78 273 274)
3(78 79 273)
3(274 273 169)
3(79 275 273)
3(275 276 273)
3(275 168 276)
3(273 276 169)
3(79 80 275)
3(80 277 275)
3(80 81 277)
3(275 277 168)
3(169 276 279)
3(276 278 279)
3(276 168 278)
3(279 278 148)
3(3 109 281)
3(109 280 281)
3(109 110 280)
3(281 280 171)
3(110 282 280)
3(282 283 280)
3(282 170 283)
3(280 283 171)
3(110 111 282)
3(111 284 282)
3(111 112 284)
3(282 284 170)
3(171 283 286)
3(283 285 286)
3(283 170 285)
3(286 285 147)
3(101 102 288)
3(102 287 288)
3(102 103 287)
3(288 287 173)
3(103 289 287)
3(289 290 287)
3(289 172 290)
3(287 290 173)
3(103 104 289)
3(104 291 289)
3(104 105 291)
3(289 291 172)
3(173 290 293)
3(290 292 293)
3(290 172 292)
3(293 292 157)
3(112 113 295)
3(113 294 295)
3(113 114 294)
3(295 294 175)
3(114 296 294)
3(296 297 294)
3(296 174 297)
3(294 297 175)
3(114 115 296)
3(115 298 296)
3(115 116 298)
3(296 298 174)
3(175 297 300)
3(297 299 300)
3(297 174 299)
3(300 299 153)
3(81 82 302)
3(82 301 302)
3(82 83 301)
3(302 301 177)
3(83 303 301)
3(303 304 301)
3(303 176 304)
3(301 304 177)
3(83 84 303)
3(84 305 303)
3(84 85 305)
3(303 305 176)
3(177 304 307)
3(304 306 307)
3(304 176 306)
3(307 306 151)
3(116 117 309)
3(117 308 309)
3(117 118 308)
3(309 308 179)
3(118 310 308)
3(310 311 308)
3(310 178 311)
3(308 311 179)
3(118 119 310)
3(119 312 310)
3(119 120 312)
3(310 312 178)
3(179 311 314)
3(311 313 314)
3(311 178 313)
3(314 313 150)
3(89 90 316)
3(90 315 316)
3(90 91 315)
3(316 315 181)
3(91 317 315)
3(317 318 315)
3(317 180 318)
3(315 318 181)
3(91 92 317)
3(92 319 317)
3(92 93 319)
3(317 319 180)
3(181 318 321)
3(318 320 321)
3(318 180 320)
3(321 320 154)
3(85 86 323)
3(86 322 323)
3(86 87 322)
3(323 322 183)
3(87 324 322)
3(324 325 322)
3(324 182 325)
3(322 325 183)
3(87 88 324)
3(88 326 324)
3(88 89 326)
3(324 326 182)
3(183 325 328)
3(325 327 328)
3(325 182 327)
3(328 327 149)
3(124 125 330)
3(125 329 330)
3(125 126 329)
3(330 329 185)
3(126 331 329)
3(331 332 329)
3(331 184 332)
3(329 332 185)
3(126 127 331)
3(127 333 331)
3(127 128 333)
3(331 333 184)
3(185 332 335)
3(332 334 335)
3(332 184 334)
3(335 334 156)
3(120 121 337)
3(121 336 337)
3(121 122 336)
3(337 336 187)
3(122 338 336)
3(338 339 336)
3(338 186 339)
3(336 339 187)
3(122 123 338)
3(123 340 338)
3(123 124 340)
3(338 340 186)
3(187 339 342)
3(339 341 342)
3(339 186 341)
3(342 341 152)
3(136 137 344)
3(137 343 344)
3(137 138 343)
3(344 343 189)
3(138 345 343)
3(345 346 343)
3(345 188 346)
3(343 346 189)
3(138 139 345)
3(139 347 345)
3(139 140 347)
3(345 347 188)
3(189 346 349)
3(346 348 349)
3(346 188 348)
3(349 348 155)
3(128 129 351)
3(129 350 351)
3(129 130 350)
3(351 350 191)
3(130 352 350)
3(352 353 350)
3(352 190 353)
3(350 353 191)
3(130 131 352)
3(131 354 352)
3(131 132 354)
3(352 354 190)
3(191 353 356)
3(353 355 356)
3(353 190 355)
3(356 355 158)
3(132 133 358)
3(133 357 358)
3(133 134 357)
3(358 357 193)
3(134 359 357)
3(359 360 357)
3(359 192 360)
3(357 360 193)
3(134 135 359)
3(135 361 359)
3(135 136 361)
3(359 361 192)
3(193 360 363)
3(360 362 363)
3(360 192 362)
3(363 362 159)
3(93 94 365)
3(94 364 365)
3(94 95 364)
3(365 364 195)
3(95 366 364)
3(366 367 364)
3(366 194 367)
3(364 367 195)
3(95 96 366)
3(96 368 366)
3(96 97 368)
3(366 368 194)
3(195 367 370)
3(367 369 370)
3(367 194 369)
3(370 369 160)
3(97 98 372)
3(98 371 372)
3(98 99 371)
3(372 371 197)
3(99 373 371)
3(373 374 371)
3(373 196 374)
3(371 374 197)
3(99 100 373)
3(100 375 373)
3(100 101 375)
3(373 375 196)
3(197 374 377)
3(374 376 377)
3(374 196 376)
3(377 376 161)
3(105 265 291)
3(265 378 291)
3(265 165 378)
3(291 378 172)
3(165 379 378)
3(379 380 378)
3(379 198 380)
3(378 380 172)
3(165 264 379)
3(264 381 379)
3(264 144 381)
3(379 381 198)
3(172 380 292)
3(380 382 292)
3(380 198 382)
3(292 382 157)
3(3 281 259)
3(281 383 259)
3(281 171 383)
3(259 383 164)
3(171 384 383)
3(384 385 383)
3(384 199 385)
3(383 385 164)
3(171 286 384)
3(286 386 384)
3(286 147 386)
3(384 386 199)
3(164 385 263)
3(385 387 263)
3(385 199 387)
3(263 387 144)
3(2 253 266)
3(253 388 266)
3(253 163 388)
3(266 388 166)
3(163 389 388)
3(389 390 388)
3(389 200 390)
3(388 390 166)
3(163 258 389)
3(258 391 389)
3(258 146 391)
3(389 391 200)
3(166 390 270)
3(390 392 270)
3(390 200 392)
3(270 392 145)
3(77 274 256)
3(274 393 256)
3(274 169 393)
3(256 393 162)
3(169 394 393)
3(394 395 393)
3(394 201 395)
3(393 395 162)
3(169 279 394)
3(279 396 394)
3(279 148 396)
3(394 396 201)
3(162 395 257)
3(395 397 257)
3(395 201 397)
3(257 397 146)
3(112 295 284)
3(295 398 284)
3(295 175 398)
3(284 398 170)
3(175 399 398)
3(399 400 398)
3(399 202 400)
3(398 400 170)
3(175 300 399)
3(300 401 399)
3(300 153 401)
3(399 401 202)
3(170 400 285)
3(400 402 285)
3(400 202 402)
3(285 402 147)
3(140 272 347)
3(272 403 347)
3(272 167 403)
3(347 403 188)
3(167 404 403)
3(404 405 403)
3(404 203 405)
3(403 405 188)
3(167 271 404)
3(271 406 404)
3(271 145 406)
3(404 406 203)
3(188 405 348)
3(405 407 348)
3(405 203 407)
3(348 407 155)
3(81 302 277)
3(302 408 277)
3(302 177 408)
3(277 408 168)
3(177 409 408)
3(409 410 408)
3(409 204 410)
3(408 410 168)
3(177 307 409)
3(307 411 409)
3(307 151 411)
3(409 411 204)
3(168 410 278)
3(410 412 278)
3(410 204 412)
3(278 412 148)
3(89 316 326)
3(316 413 326)
3(316 181 413)
3(326 413 182)
3(181 414 413)
3(414 415 413)
3(414 205 415)
3(413 415 182)
3(181 321 414)
3(321 416 414)
3(321 154 416)
3(414 416 205)
3(182 415 327)
3(415 417 327)
3(415 205 417)
3(327 417 149)
3(116 309 298)
3(309 418 298)
3(309 179 418)
3(298 418 174)
3(179 419 418)
3(419 420 418)
3(419 206 420)
3(418 420 174)
3(179 314 419)
3(314 421 419)
3(314 150 421)
3(419 421 206)
3(174 420 299)
3(420 422 299)
3(420 206 422)
3(299 422 153)
3(124 330 340)
3(330 423 340)
3(330 185 423)
3(340 423 186)
3(185 424 423)
3(424 425 423)
3(424 207 425)
3(423 425 186)
3(185 335 424)
3(335 426 424)
3(335 156 426)
3(424 426 207)
3(186 425 341)
3(425 427 341)
3(425 207 427)
3(341 427 152)
3(85 323 305)
3(323 428 305)
3(323 183 428)
3(305 428 176)
3(183 429 428)
3(429 430 428)
3(429 208 430)
3(428 430 176)
3(183 328 429)
3(328 431 429)
3(328 149 431)
3(429 431 208)
3(176 430 306)
3(430 432 306)
3(430 208 432)
3(306 432 151)
3(120 337 312)
3(337 433 312)
3(337 187 433)
3(312 433 178)
3(187 434 433)
3(434 435 433)
3(434 209 435)
3(433 435 178)
3(187 342 434)
3(342 436 434)
3(342 152 436)
3(434 436 209)
3(178 435 313)
3(435 437 313)
3(435 209 437)
3(313 437 150)
3(101 288 375)
3(288 438 375)
3(288 173 438)
3(375 438 196)
3(173 439 438)
3(439 440 438)
3(439 210 440)
3(438 440 196)
3(173 293 439)
3(293 441 439)
3(293 157 441)
3(439 441 210)
3(196 440 376)
3(440 442 376)
3(440 210 442)
3(376 442 161)
3(93 365 319)
3(365 443 319)
3(365 195 443)
3(319 443 180)
3(195 444 443)
3(444 445 443)
3(444 211 445)
3(443 445 180)
3(195 370 444)
3(370 446 444)
3(370 160 446)
3(444 446 211)
3(180 445 320)
3(445 447 320)
3(445 211 447)
3(320 447 154)
3(128 351 333)
3(351 448 333)
3(351 191 448)
3(333 448 184)
3(191 449 448)
3(449 450 448)
3(449 212 450)
3(448 450 184)
3(191 356 449)
3(356 451 449)
3(356 158 451)
3(449 451 212)
3(184 450 334)
3(450 452 334)
3(450 212 452)
3(334 452 156)
3(132 358 354)
3(358 453 354)
3(358 193 453)
3(354 453 190)
3(193 454 453)
3(454 455 453)
3(454 213 455)
3(453 455 190)
3(193 363 454)
3(363 456 454)
3(363 159 456)
3(454 456 213)
3(190 455 355)
3(455 457 355)
3(455 213 457)
3(355 457 158)
3(136 344 361)
3(344 458 361)
3(344 189 458)
3(361 458 192)
3(189 459 458)
3(459 460 458)
3(459 214 460)
3(458 460 192)
3(189 349 459)
3(349 461 459)
3(349 155 461)
3(459 461 214)
3(192 460 362)
3(460 462 362)
3(460 214 462)
3(362 462 159)
3(97 372 368)
3(372 463 368)
3(372 197 463)
3(368 463 194)
3(197 464 463)
3(464 465 463)
3(464 215 465)
3(463 465 194)
3(197 377 464)
3(377 466 464)
3(377 161 466)
3(464 466 215)
3(194 465 369)
3(465 467 369)
3(465 215 467)
3(369 467 160)
3(31 468 32)
3(468 469 32)
3(468 216 469)
3(32 469 33)
3(216 470 469)
3(470 471 469)
3(470 217 471)
3(469 471 33)
3(216 472 470)
3(472 473 470)
3(472 157 473)
3(470 473 217)
3(33 471 34)
3(471 474 34)
3(471 217 474)
3(34 474 35)
3(1 38 476)
3(38 475 476)
3(38 37 475)
3(476 475 219)
3(37 477 475)
3(477 478 475)
3(477 218 478)
3(475 478 219)
3(37 36 477)
3(36 479 477)
3(36 35 479)
3(477 479 218)
3(219 478 481)
3(478 480 481)
3(478 218 480)
3(481 480 144)
3(0 73 483)
3(73 482 483)
3(73 72 482)
3(483 482 221)
3(72 484 482)
3(484 485 482)
3(484 220 485)
3(482 485 221)
3(72 71 484)
3(71 486 484)
3(71 70 486)
3(484 486 220)
3(221 485 488)
3(485 487 488)
3(485 220 487)
3(488 487 145)
3(42 489 43)
3(489 490 43)
3(489 222 490)
3(43 490 44)
3(222 491 490)
3(491 492 490)
3(491 223 492)
3(490 492 44)
3(222 493 491)
3(493 494 491)
3(493 153 494)
3(491 494 223)
3(44 492 45)
3(492 495 45)
3(492 223 495)
3(45 495 46)
3(23 496 24)
3(496 497 24)
3(496 224 497)
3(24 497 25)
3(224 498 497)
3(498 499 497)
3(498 225 499)
3(497 499 25)
3(224 500 498)
3(500 501 498)
3(500 160 501)
3(498 501 225)
3(25 499 26)
3(499 502 26)
3(499 225 502)
3(26 502 27)
3(7 503 8)
3(503 504 8)
3(503 226 504)
3(8 504 9)
3(226 505 504)
3(505 506 504)
3(505 227 506)
3(504 506 9)
3(226 507 505)
3(507 508 505)
3(507 148 508)
3(505 508 227)
3(9 506 10)
3(506 509 10)
3(506 227 509)
3(10 509 11)
3(54 510 55)
3(510 511 55)
3(510 228 511)
3(55 511 56)
3(228 512 511)
3(512 513 511)
3(512 229 513)
3(511 513 56)
3(228 514 512)
3(514 515 512)
3(514 156 515)
3(512 515 229)
3(56 513 57)
3(513 516 57)
3(513 229 516)
3(57 516 58)
3(62 517 63)
3(517 518 63)
3(517 230 518)
3(63 518 64)
3(230 519 518)
3(519 520 518)
3(519 231 520)
3(518 520 64)
3(230 521 519)
3(521 522 519)
3(521 159 522)
3(519 522 231)
3(64 520 65)
3(520 523 65)
3(520 231 523)
3(65 523 66)
3(66 524 67)
3(524 525 67)
3(524 232 525)
3(67 525 68)
3(232 526 525)
3(526 527 525)
3(526 233 527)
3(525 527 68)
3(232 528 526)
3(528 529 526)
3(528 155 529)
3(526 529 233)
3(68 527 69)
3(527 530 69)
3(527 233 530)
3(69 530 70)
3(19 531 20)
3(531 532 20)
3(531 234 532)
3(20 532 21)
3(234 533 532)
3(533 534 532)
3(533 235 534)
3(532 534 21)
3(234 535 533)
3(535 536 533)
3(535 154 536)
3(533 536 235)
3(21 534 22)
3(534 537 22)
3(534 235 537)
3(22 537 23)
3(58 538 59)
3(538 539 59)
3(538 236 539)
3(59 539 60)
3(236 540 539)
3(540 541 539)
3(540 237 541)
3(539 541 60)
3(236 542 540)
3(542 543 540)
3(542 158 543)
3(540 543 237)
3(60 541 61)
3(541 544 61)
3(541 237 544)
3(61 544 62)
3(46 545 47)
3(545 546 47)
3(545 238 546)
3(47 546 48)
3(238 547 546)
3(547 548 546)
3(547 239 548)
3(546 548 48)
3(238 549 547)
3(549 550 547)
3(549 150 550)
3(547 550 239)
3(48 548 49)
3(548 551 49)
3(548 239 551)
3(49 551 50)
3(15 552 16)
3(552 553 16)
3(552 240 553)
3(16 553 17)
3(240 554 553)
3(554 555 553)
3(554 241 555)
3(553 555 17)
3(240 556 554)
3(556 557 554)
3(556 149 557)
3(554 557 241)
3(17 555 18)
3(555 558 18)
3(555 241 558)
3(18 558 19)
3(50 559 51)
3(559 560 51)
3(559 242 560)
3(51 560 52)
3(242 561 560)
3(561 562 560)
3(561 243 562)
3(560 562 52)
3(242 563 561)
3(563 564 561)
3(563 152 564)
3(561 564 243)
3(52 562 53)
3(562 565 53)
3(562 243 565)
3(53 565 54)
3(11 566 12)
3(566 567 12)
3(566 244 567)
3(12 567 13)
3(244 568 567)
3(568 569 567)
3(568 245 569)
3(567 569 13)
3(244 570 568)
3(570 571 568)
3(570 151 571)
3(568 571 245)
3(13 569 14)
3(569 572 14)
3(569 245 572)
3(14 572 15)
3(27 573 28)
3(573 574 28)
3(573 246 574)
3(28 574 29)
3(246 575 574)
3(575 576 574)
3(575 247 576)
3(574 576 29)
3(246 577 575)
3(577 578 575)
3(577 161 578)
3(575 578 247)
3(29 576 30)
3(576 579 30)
3(576 247 579)
3(30 579 31)
3(0 580 4)
3(580 581 4)
3(580 248 581)
3(4 581 5)
3(248 582 581)
3(582 583 581)
3(582 249 583)
3(581 583 5)
3(248 584 582)
3(584 585 582)
3(584 146 585)
3(582 585 249)
3(5 583 6)
3(583 586 6)
3(583 249 586)
3(6 586 7)
3(1 587 39)
3(587 588 39)
3(587 250 588)
3(39 588 40)
3(250 589 588)
3(589 590 588)
3(589 251 590)
3(588 590 40)
3(250 591 589)
3(591 592 589)
3(591 147 592)
3(589 592 251)
3(40 590 41)
3(590 593 41)
3(590 251 593)
3(41 593 42)
3(1 476 587)
3(476 594 587)
3(476 219 594)
3(587 594 250)
3(219 595 594)
3(595 596 594)
3(595 199 596)
3(594 596 250)
3(219 481 595)
3(481 387 595)
3(481 144 387)
3(595 387 199)
3(250 596 591)
3(596 386 591)
3(596 199 386)
3(591 386 147)
3(42 593 489)
3(593 597 489)
3(593 251 597)
3(489 597 222)
3(251 598 597)
3(598 599 597)
3(598 202 599)
3(597 599 222)
3(251 592 598)
3(592 402 598)
3(592 147 402)
3(598 402 202)
3(222 599 493)
3(599 401 493)
3(599 202 401)
3(493 401 153)
3(0 483 580)
3(483 600 580)
3(483 221 600)
3(580 600 248)
3(221 601 600)
3(601 602 600)
3(601 200 602)
3(600 602 248)
3(221 488 601)
3(488 392 601)
3(488 145 392)
3(601 392 200)
3(248 602 584)
3(602 391 584)
3(602 200 391)
3(584 391 146)
3(7 586 503)
3(586 603 503)
3(586 249 603)
3(503 603 226)
3(249 604 603)
3(604 605 603)
3(604 201 605)
3(603 605 226)
3(249 585 604)
3(585 397 604)
3(585 146 397)
3(604 397 201)
3(226 605 507)
3(605 396 507)
3(605 201 396)
3(507 396 148)
3(35 474 479)
3(474 606 479)
3(474 217 606)
3(479 606 218)
3(217 607 606)
3(607 608 606)
3(607 198 608)
3(606 608 218)
3(217 473 607)
3(473 382 607)
3(473 157 382)
3(607 382 198)
3(218 608 480)
3(608 381 480)
3(608 198 381)
3(480 381 144)
3(11 509 566)
3(509 609 566)
3(509 227 609)
3(566 609 244)
3(227 610 609)
3(610 611 609)
3(610 204 611)
3(609 611 244)
3(227 508 610)
3(508 412 610)
3(508 148 412)
3(610 412 204)
3(244 611 570)
3(611 411 570)
3(611 204 411)
3(570 411 151)
3(70 530 486)
3(530 612 486)
3(530 233 612)
3(486 612 220)
3(233 613 612)
3(613 614 612)
3(613 203 614)
3(612 614 220)
3(233 529 613)
3(529 407 613)
3(529 155 407)
3(613 407 203)
3(220 614 487)
3(614 406 487)
3(614 203 406)
3(487 406 145)
3(46 495 545)
3(495 615 545)
3(495 223 615)
3(545 615 238)
3(223 616 615)
3(616 617 615)
3(616 206 617)
3(615 617 238)
3(223 494 616)
3(494 422 616)
3(494 153 422)
3(616 422 206)
3(238 617 549)
3(617 421 549)
3(617 206 421)
3(549 421 150)
3(50 551 559)
3(551 618 559)
3(551 239 618)
3(559 618 242)
3(239 619 618)
3(619 620 618)
3(619 209 620)
3(618 620 242)
3(239 550 619)
3(550 437 619)
3(550 150 437)
3(619 437 209)
3(242 620 563)
3(620 436 563)
3(620 209 436)
3(563 436 152)
3(19 558 531)
3(558 621 531)
3(558 241 621)
3(531 621 234)
3(241 622 621)
3(622 623 621)
3(622 205 623)
3(621 623 234)
3(241 557 622)
3(557 417 622)
3(557 149 417)
3(622 417 205)
3(234 623 535)
3(623 416 535)
3(623 205 416)
3(535 416 154)
3(54 565 510)
3(565 624 510)
3(565 243 624)
3(510 624 228)
3(243 625 624)
3(625 626 624)
3(625 207 626)
3(624 626 228)
3(243 564 625)
3(564 427 625)
3(564 152 427)
3(625 427 207)
3(228 626 514)
3(626 426 514)
3(626 207 426)
3(514 426 156)
3(23 537 496)
3(537 627 496)
3(537 235 627)
3(496 627 224)
3(235 628 627)
3(628 629 627)
3(628 211 629)
3(627 629 224)
3(235 536 628)
3(536 447 628)
3(536 154 447)
3(628 447 211)
3(224 629 500)
3(629 446 500)
3(629 211 446)
3(500 446 160)
3(15 572 552)
3(572 630 552)
3(572 245 630)
3(552 630 240)
3(245 631 630)
3(631 632 630)
3(631 208 632)
3(630 632 240)
3(245 571 631)
3(571 432 631)
3(571 151 432)
3(631 432 208)
3(240 632 556)
3(632 431 556)
3(632 208 431)
3(556 431 149)
3(31 579 468)
3(579 633 468)
3(579 247 633)
3(468 633 216)
3(247 634 633)
3(634 635 633)
3(634 210 635)
3(633 635 216)
3(247 578 634)
3(578 442 634)
3(578 161 442)
3(634 442 210)
3(216 635 472)
3(635 441 472)
3(635 210 441)
3(472 441 157)
3(58 516 538)
3(516 636 538)
3(516 229 636)
3(538 636 236)
3(229 637 636)
3(637 638 636)
3(637 212 638)
3(636 638 236)
3(229 515 637)
3(515 452 637)
3(515 156 452)
3(637 452 212)
3(236 638 542)
3(638 451 542)
3(638 212 451)
3(542 451 158)
3(66 523 524)
3(523 639 524)
3(523 231 639)
3(524 639 232)
3(231 640 639)
3(640 641 639)
3(640 214 641)
3(639 641 232)
3(231 522 640)
3(522 462 640)
3(522 159 462)
3(640 462 214)
3(232 641 528)
3(641 461 528)
3(641 214 461)
3(528 461 155)
3(62 544 517)
3(544 642 517)
3(544 237 642)
3(517 642 230)
3(237 643 642)
3(643 644 642)
3(643 213 644)
3(642 644 230)
3(237 543 643)
3(543 457 643)
3(543 158 457)
3(643 457 213)
3(230 644 521)
3(644 456 521)
3(644 213 456)
3(521 456 159)
3(27 502 573)
3(502 645 573)
3(502 225 645)
3(573 645 246)
3(225 646 645)
3(646 647 645)
3(646 215 647)
3(645 647 246)
3(225 501 646)
3(501 467 646)
3(501 160 467)
3(646 467 215)
3(246 647 577)
3(647 466 577)
3(647 215 466)
3(577 466 161)
)


// ************************************************************************* //
