/*--------------------------------*- C++ -*----------------------------------*\
| =========                 |                                                 |
| \\      /  F ield         | OpenFOAM: The Open Source CFD Toolbox           |
|  \\    /   O peration     | Version:  v1806                                 |
|   \\  /    A nd           | Web:      www.OpenFOAM.com                      |
|    \\/     M anipulation  |                                                 |
\*---------------------------------------------------------------------------*/
FoamFile
{
    version     2.0;
    format      ascii;
    class       vectorField;
    location    "constant";
    object      cloud_of_points;
}
// * * * * * * * * * * * * * * * * * * * * * * * * * * * * * * * * * * * * * //


10000
(
(0.3 0.3 0.05)
(0.7 0.3 0.05)
(0.7 0.7 0.05)
(0.3 0.7 0.05)
(0.69596 0.3 0.05)
(0.691919 0.3 0.05)
(0.687879 0.3 0.05)
(0.683838 0.3 0.05)
(0.679798 0.3 0.05)
(0.675758 0.3 0.05)
(0.671717 0.3 0.05)
(0.667677 0.3 0.05)
(0.663636 0.3 0.05)
(0.659596 0.3 0.05)
(0.655556 0.3 0.05)
(0.651515 0.3 0.05)
(0.647475 0.3 0.05)
(0.643434 0.3 0.05)
(0.639394 0.3 0.05)
(0.635354 0.3 0.05)
(0.631313 0.3 0.05)
(0.627273 0.3 0.05)
(0.623232 0.3 0.05)
(0.619192 0.3 0.05)
(0.615152 0.3 0.05)
(0.611111 0.3 0.05)
(0.607071 0.3 0.05)
(0.60303 0.3 0.05)
(0.59899 0.3 0.05)
(0.594949 0.3 0.05)
(0.590909 0.3 0.05)
(0.586869 0.3 0.05)
(0.582828 0.3 0.05)
(0.578788 0.3 0.05)
(0.574747 0.3 0.05)
(0.570707 0.3 0.05)
(0.566667 0.3 0.05)
(0.562626 0.3 0.05)
(0.558586 0.3 0.05)
(0.554545 0.3 0.05)
(0.550505 0.3 0.05)
(0.546465 0.3 0.05)
(0.542424 0.3 0.05)
(0.538384 0.3 0.05)
(0.534343 0.3 0.05)
(0.530303 0.3 0.05)
(0.526263 0.3 0.05)
(0.522222 0.3 0.05)
(0.518182 0.3 0.05)
(0.514141 0.3 0.05)
(0.510101 0.3 0.05)
(0.506061 0.3 0.05)
(0.50202 0.3 0.05)
(0.49798 0.3 0.05)
(0.493939 0.3 0.05)
(0.489899 0.3 0.05)
(0.485859 0.3 0.05)
(0.481818 0.3 0.05)
(0.477778 0.3 0.05)
(0.473737 0.3 0.05)
(0.469697 0.3 0.05)
(0.465657 0.3 0.05)
(0.461616 0.3 0.05)
(0.457576 0.3 0.05)
(0.453535 0.3 0.05)
(0.449495 0.3 0.05)
(0.445455 0.3 0.05)
(0.441414 0.3 0.05)
(0.437374 0.3 0.05)
(0.433333 0.3 0.05)
(0.429293 0.3 0.05)
(0.425253 0.3 0.05)
(0.421212 0.3 0.05)
(0.417172 0.3 0.05)
(0.413131 0.3 0.05)
(0.409091 0.3 0.05)
(0.405051 0.3 0.05)
(0.40101 0.3 0.05)
(0.39697 0.3 0.05)
(0.392929 0.3 0.05)
(0.388889 0.3 0.05)
(0.384848 0.3 0.05)
(0.380808 0.3 0.05)
(0.376768 0.3 0.05)
(0.372727 0.3 0.05)
(0.368687 0.3 0.05)
(0.364646 0.3 0.05)
(0.360606 0.3 0.05)
(0.356566 0.3 0.05)
(0.352525 0.3 0.05)
(0.348485 0.3 0.05)
(0.344444 0.3 0.05)
(0.340404 0.3 0.05)
(0.336364 0.3 0.05)
(0.332323 0.3 0.05)
(0.328283 0.3 0.05)
(0.324242 0.3 0.05)
(0.320202 0.3 0.05)
(0.316162 0.3 0.05)
(0.312121 0.3 0.05)
(0.308081 0.3 0.05)
(0.30404 0.3 0.05)
(0.7 0.30404 0.05)
(0.7 0.308081 0.05)
(0.7 0.312121 0.05)
(0.7 0.316162 0.05)
(0.7 0.320202 0.05)
(0.7 0.324242 0.05)
(0.7 0.328283 0.05)
(0.7 0.332323 0.05)
(0.7 0.336364 0.05)
(0.7 0.340404 0.05)
(0.7 0.344444 0.05)
(0.7 0.348485 0.05)
(0.7 0.352525 0.05)
(0.7 0.356566 0.05)
(0.7 0.360606 0.05)
(0.7 0.364646 0.05)
(0.7 0.368687 0.05)
(0.7 0.372727 0.05)
(0.7 0.376768 0.05)
(0.7 0.380808 0.05)
(0.7 0.384848 0.05)
(0.7 0.388889 0.05)
(0.7 0.392929 0.05)
(0.7 0.39697 0.05)
(0.7 0.40101 0.05)
(0.7 0.405051 0.05)
(0.7 0.409091 0.05)
(0.7 0.413131 0.05)
(0.7 0.417172 0.05)
(0.7 0.421212 0.05)
(0.7 0.425253 0.05)
(0.7 0.429293 0.05)
(0.7 0.433333 0.05)
(0.7 0.437374 0.05)
(0.7 0.441414 0.05)
(0.7 0.445455 0.05)
(0.7 0.449495 0.05)
(0.7 0.453535 0.05)
(0.7 0.457576 0.05)
(0.7 0.461616 0.05)
(0.7 0.465657 0.05)
(0.7 0.469697 0.05)
(0.7 0.473737 0.05)
(0.7 0.477778 0.05)
(0.7 0.481818 0.05)
(0.7 0.485859 0.05)
(0.7 0.489899 0.05)
(0.7 0.493939 0.05)
(0.7 0.49798 0.05)
(0.7 0.50202 0.05)
(0.7 0.506061 0.05)
(0.7 0.510101 0.05)
(0.7 0.514141 0.05)
(0.7 0.518182 0.05)
(0.7 0.522222 0.05)
(0.7 0.526263 0.05)
(0.7 0.530303 0.05)
(0.7 0.534343 0.05)
(0.7 0.538384 0.05)
(0.7 0.542424 0.05)
(0.7 0.546465 0.05)
(0.7 0.550505 0.05)
(0.7 0.554545 0.05)
(0.7 0.558586 0.05)
(0.7 0.562626 0.05)
(0.7 0.566667 0.05)
(0.7 0.570707 0.05)
(0.7 0.574747 0.05)
(0.7 0.578788 0.05)
(0.7 0.582828 0.05)
(0.7 0.586869 0.05)
(0.7 0.590909 0.05)
(0.7 0.594949 0.05)
(0.7 0.59899 0.05)
(0.7 0.60303 0.05)
(0.7 0.607071 0.05)
(0.7 0.611111 0.05)
(0.7 0.615152 0.05)
(0.7 0.619192 0.05)
(0.7 0.623232 0.05)
(0.7 0.627273 0.05)
(0.7 0.631313 0.05)
(0.7 0.635354 0.05)
(0.7 0.639394 0.05)
(0.7 0.643434 0.05)
(0.7 0.647475 0.05)
(0.7 0.651515 0.05)
(0.7 0.655556 0.05)
(0.7 0.659596 0.05)
(0.7 0.663636 0.05)
(0.7 0.667677 0.05)
(0.7 0.671717 0.05)
(0.7 0.675758 0.05)
(0.7 0.679798 0.05)
(0.7 0.683838 0.05)
(0.7 0.687879 0.05)
(0.7 0.691919 0.05)
(0.7 0.69596 0.05)
(0.69596 0.7 0.05)
(0.691919 0.7 0.05)
(0.687879 0.7 0.05)
(0.683838 0.7 0.05)
(0.679798 0.7 0.05)
(0.675758 0.7 0.05)
(0.671717 0.7 0.05)
(0.667677 0.7 0.05)
(0.663636 0.7 0.05)
(0.659596 0.7 0.05)
(0.655556 0.7 0.05)
(0.651515 0.7 0.05)
(0.647475 0.7 0.05)
(0.643434 0.7 0.05)
(0.639394 0.7 0.05)
(0.635354 0.7 0.05)
(0.631313 0.7 0.05)
(0.627273 0.7 0.05)
(0.623232 0.7 0.05)
(0.619192 0.7 0.05)
(0.615152 0.7 0.05)
(0.611111 0.7 0.05)
(0.607071 0.7 0.05)
(0.60303 0.7 0.05)
(0.59899 0.7 0.05)
(0.594949 0.7 0.05)
(0.590909 0.7 0.05)
(0.586869 0.7 0.05)
(0.582828 0.7 0.05)
(0.578788 0.7 0.05)
(0.574747 0.7 0.05)
(0.570707 0.7 0.05)
(0.566667 0.7 0.05)
(0.562626 0.7 0.05)
(0.558586 0.7 0.05)
(0.554545 0.7 0.05)
(0.550505 0.7 0.05)
(0.546465 0.7 0.05)
(0.542424 0.7 0.05)
(0.538384 0.7 0.05)
(0.534343 0.7 0.05)
(0.530303 0.7 0.05)
(0.526263 0.7 0.05)
(0.522222 0.7 0.05)
(0.518182 0.7 0.05)
(0.514141 0.7 0.05)
(0.510101 0.7 0.05)
(0.506061 0.7 0.05)
(0.50202 0.7 0.05)
(0.49798 0.7 0.05)
(0.493939 0.7 0.05)
(0.489899 0.7 0.05)
(0.485859 0.7 0.05)
(0.481818 0.7 0.05)
(0.477778 0.7 0.05)
(0.473737 0.7 0.05)
(0.469697 0.7 0.05)
(0.465657 0.7 0.05)
(0.461616 0.7 0.05)
(0.457576 0.7 0.05)
(0.453535 0.7 0.05)
(0.449495 0.7 0.05)
(0.445455 0.7 0.05)
(0.441414 0.7 0.05)
(0.437374 0.7 0.05)
(0.433333 0.7 0.05)
(0.429293 0.7 0.05)
(0.425253 0.7 0.05)
(0.421212 0.7 0.05)
(0.417172 0.7 0.05)
(0.413131 0.7 0.05)
(0.409091 0.7 0.05)
(0.405051 0.7 0.05)
(0.40101 0.7 0.05)
(0.39697 0.7 0.05)
(0.392929 0.7 0.05)
(0.388889 0.7 0.05)
(0.384848 0.7 0.05)
(0.380808 0.7 0.05)
(0.376768 0.7 0.05)
(0.372727 0.7 0.05)
(0.368687 0.7 0.05)
(0.364646 0.7 0.05)
(0.360606 0.7 0.05)
(0.356566 0.7 0.05)
(0.352525 0.7 0.05)
(0.348485 0.7 0.05)
(0.344444 0.7 0.05)
(0.340404 0.7 0.05)
(0.336364 0.7 0.05)
(0.332323 0.7 0.05)
(0.328283 0.7 0.05)
(0.324242 0.7 0.05)
(0.320202 0.7 0.05)
(0.316162 0.7 0.05)
(0.312121 0.7 0.05)
(0.308081 0.7 0.05)
(0.30404 0.7 0.05)
(0.3 0.69596 0.05)
(0.3 0.691919 0.05)
(0.3 0.687879 0.05)
(0.3 0.683838 0.05)
(0.3 0.679798 0.05)
(0.3 0.675758 0.05)
(0.3 0.671717 0.05)
(0.3 0.667677 0.05)
(0.3 0.663636 0.05)
(0.3 0.659596 0.05)
(0.3 0.655556 0.05)
(0.3 0.651515 0.05)
(0.3 0.647475 0.05)
(0.3 0.643434 0.05)
(0.3 0.639394 0.05)
(0.3 0.635354 0.05)
(0.3 0.631313 0.05)
(0.3 0.627273 0.05)
(0.3 0.623232 0.05)
(0.3 0.619192 0.05)
(0.3 0.615152 0.05)
(0.3 0.611111 0.05)
(0.3 0.607071 0.05)
(0.3 0.60303 0.05)
(0.3 0.59899 0.05)
(0.3 0.594949 0.05)
(0.3 0.590909 0.05)
(0.3 0.586869 0.05)
(0.3 0.582828 0.05)
(0.3 0.578788 0.05)
(0.3 0.574747 0.05)
(0.3 0.570707 0.05)
(0.3 0.566667 0.05)
(0.3 0.562626 0.05)
(0.3 0.558586 0.05)
(0.3 0.554545 0.05)
(0.3 0.550505 0.05)
(0.3 0.546465 0.05)
(0.3 0.542424 0.05)
(0.3 0.538384 0.05)
(0.3 0.534343 0.05)
(0.3 0.530303 0.05)
(0.3 0.526263 0.05)
(0.3 0.522222 0.05)
(0.3 0.518182 0.05)
(0.3 0.514141 0.05)
(0.3 0.510101 0.05)
(0.3 0.506061 0.05)
(0.3 0.50202 0.05)
(0.3 0.49798 0.05)
(0.3 0.493939 0.05)
(0.3 0.489899 0.05)
(0.3 0.485859 0.05)
(0.3 0.481818 0.05)
(0.3 0.477778 0.05)
(0.3 0.473737 0.05)
(0.3 0.469697 0.05)
(0.3 0.465657 0.05)
(0.3 0.461616 0.05)
(0.3 0.457576 0.05)
(0.3 0.453535 0.05)
(0.3 0.449495 0.05)
(0.3 0.445455 0.05)
(0.3 0.441414 0.05)
(0.3 0.437374 0.05)
(0.3 0.433333 0.05)
(0.3 0.429293 0.05)
(0.3 0.425253 0.05)
(0.3 0.421212 0.05)
(0.3 0.417172 0.05)
(0.3 0.413131 0.05)
(0.3 0.409091 0.05)
(0.3 0.405051 0.05)
(0.3 0.40101 0.05)
(0.3 0.39697 0.05)
(0.3 0.392929 0.05)
(0.3 0.388889 0.05)
(0.3 0.384848 0.05)
(0.3 0.380808 0.05)
(0.3 0.376768 0.05)
(0.3 0.372727 0.05)
(0.3 0.368687 0.05)
(0.3 0.364646 0.05)
(0.3 0.360606 0.05)
(0.3 0.356566 0.05)
(0.3 0.352525 0.05)
(0.3 0.348485 0.05)
(0.3 0.344444 0.05)
(0.3 0.340404 0.05)
(0.3 0.336364 0.05)
(0.3 0.332323 0.05)
(0.3 0.328283 0.05)
(0.3 0.324242 0.05)
(0.3 0.320202 0.05)
(0.3 0.316162 0.05)
(0.3 0.312121 0.05)
(0.3 0.308081 0.05)
(0.3 0.30404 0.05)
(0.69596 0.69596 0.05)
(0.69596 0.691919 0.05)
(0.69596 0.687879 0.05)
(0.69596 0.683838 0.05)
(0.69596 0.679798 0.05)
(0.69596 0.675758 0.05)
(0.69596 0.671717 0.05)
(0.69596 0.667677 0.05)
(0.69596 0.663636 0.05)
(0.69596 0.659596 0.05)
(0.69596 0.655556 0.05)
(0.69596 0.651515 0.05)
(0.69596 0.647475 0.05)
(0.69596 0.643434 0.05)
(0.69596 0.639394 0.05)
(0.69596 0.635354 0.05)
(0.69596 0.631313 0.05)
(0.69596 0.627273 0.05)
(0.69596 0.623232 0.05)
(0.69596 0.619192 0.05)
(0.69596 0.615152 0.05)
(0.69596 0.611111 0.05)
(0.69596 0.607071 0.05)
(0.69596 0.60303 0.05)
(0.69596 0.59899 0.05)
(0.69596 0.594949 0.05)
(0.69596 0.590909 0.05)
(0.69596 0.586869 0.05)
(0.69596 0.582828 0.05)
(0.69596 0.578788 0.05)
(0.69596 0.574747 0.05)
(0.69596 0.570707 0.05)
(0.69596 0.566667 0.05)
(0.69596 0.562626 0.05)
(0.69596 0.558586 0.05)
(0.69596 0.554545 0.05)
(0.69596 0.550505 0.05)
(0.69596 0.546465 0.05)
(0.69596 0.542424 0.05)
(0.69596 0.538384 0.05)
(0.69596 0.534343 0.05)
(0.69596 0.530303 0.05)
(0.69596 0.526263 0.05)
(0.69596 0.522222 0.05)
(0.69596 0.518182 0.05)
(0.69596 0.514141 0.05)
(0.69596 0.510101 0.05)
(0.69596 0.506061 0.05)
(0.69596 0.50202 0.05)
(0.69596 0.49798 0.05)
(0.69596 0.493939 0.05)
(0.69596 0.489899 0.05)
(0.69596 0.485859 0.05)
(0.69596 0.481818 0.05)
(0.69596 0.477778 0.05)
(0.69596 0.473737 0.05)
(0.69596 0.469697 0.05)
(0.69596 0.465657 0.05)
(0.69596 0.461616 0.05)
(0.69596 0.457576 0.05)
(0.69596 0.453535 0.05)
(0.69596 0.449495 0.05)
(0.69596 0.445455 0.05)
(0.69596 0.441414 0.05)
(0.69596 0.437374 0.05)
(0.69596 0.433333 0.05)
(0.69596 0.429293 0.05)
(0.69596 0.425253 0.05)
(0.69596 0.421212 0.05)
(0.69596 0.417172 0.05)
(0.69596 0.413131 0.05)
(0.69596 0.409091 0.05)
(0.69596 0.405051 0.05)
(0.69596 0.40101 0.05)
(0.69596 0.39697 0.05)
(0.69596 0.392929 0.05)
(0.69596 0.388889 0.05)
(0.69596 0.384848 0.05)
(0.69596 0.380808 0.05)
(0.69596 0.376768 0.05)
(0.69596 0.372727 0.05)
(0.69596 0.368687 0.05)
(0.69596 0.364646 0.05)
(0.69596 0.360606 0.05)
(0.69596 0.356566 0.05)
(0.69596 0.352525 0.05)
(0.69596 0.348485 0.05)
(0.69596 0.344444 0.05)
(0.69596 0.340404 0.05)
(0.69596 0.336364 0.05)
(0.69596 0.332323 0.05)
(0.69596 0.328283 0.05)
(0.69596 0.324242 0.05)
(0.69596 0.320202 0.05)
(0.69596 0.316162 0.05)
(0.69596 0.312121 0.05)
(0.69596 0.308081 0.05)
(0.69596 0.30404 0.05)
(0.691919 0.69596 0.05)
(0.691919 0.691919 0.05)
(0.691919 0.687879 0.05)
(0.691919 0.683838 0.05)
(0.691919 0.679798 0.05)
(0.691919 0.675758 0.05)
(0.691919 0.671717 0.05)
(0.691919 0.667677 0.05)
(0.691919 0.663636 0.05)
(0.691919 0.659596 0.05)
(0.691919 0.655556 0.05)
(0.691919 0.651515 0.05)
(0.691919 0.647475 0.05)
(0.691919 0.643434 0.05)
(0.691919 0.639394 0.05)
(0.691919 0.635354 0.05)
(0.691919 0.631313 0.05)
(0.691919 0.627273 0.05)
(0.691919 0.623232 0.05)
(0.691919 0.619192 0.05)
(0.691919 0.615152 0.05)
(0.691919 0.611111 0.05)
(0.691919 0.607071 0.05)
(0.691919 0.60303 0.05)
(0.691919 0.59899 0.05)
(0.691919 0.594949 0.05)
(0.691919 0.590909 0.05)
(0.691919 0.586869 0.05)
(0.691919 0.582828 0.05)
(0.691919 0.578788 0.05)
(0.691919 0.574747 0.05)
(0.691919 0.570707 0.05)
(0.691919 0.566667 0.05)
(0.691919 0.562626 0.05)
(0.691919 0.558586 0.05)
(0.691919 0.554545 0.05)
(0.691919 0.550505 0.05)
(0.691919 0.546465 0.05)
(0.691919 0.542424 0.05)
(0.691919 0.538384 0.05)
(0.691919 0.534343 0.05)
(0.691919 0.530303 0.05)
(0.691919 0.526263 0.05)
(0.691919 0.522222 0.05)
(0.691919 0.518182 0.05)
(0.691919 0.514141 0.05)
(0.691919 0.510101 0.05)
(0.691919 0.506061 0.05)
(0.691919 0.50202 0.05)
(0.691919 0.49798 0.05)
(0.691919 0.493939 0.05)
(0.691919 0.489899 0.05)
(0.691919 0.485859 0.05)
(0.691919 0.481818 0.05)
(0.691919 0.477778 0.05)
(0.691919 0.473737 0.05)
(0.691919 0.469697 0.05)
(0.691919 0.465657 0.05)
(0.691919 0.461616 0.05)
(0.691919 0.457576 0.05)
(0.691919 0.453535 0.05)
(0.691919 0.449495 0.05)
(0.691919 0.445455 0.05)
(0.691919 0.441414 0.05)
(0.691919 0.437374 0.05)
(0.691919 0.433333 0.05)
(0.691919 0.429293 0.05)
(0.691919 0.425253 0.05)
(0.691919 0.421212 0.05)
(0.691919 0.417172 0.05)
(0.691919 0.413131 0.05)
(0.691919 0.409091 0.05)
(0.691919 0.405051 0.05)
(0.691919 0.40101 0.05)
(0.691919 0.39697 0.05)
(0.691919 0.392929 0.05)
(0.691919 0.388889 0.05)
(0.691919 0.384848 0.05)
(0.691919 0.380808 0.05)
(0.691919 0.376768 0.05)
(0.691919 0.372727 0.05)
(0.691919 0.368687 0.05)
(0.691919 0.364646 0.05)
(0.691919 0.360606 0.05)
(0.691919 0.356566 0.05)
(0.691919 0.352525 0.05)
(0.691919 0.348485 0.05)
(0.691919 0.344444 0.05)
(0.691919 0.340404 0.05)
(0.691919 0.336364 0.05)
(0.691919 0.332323 0.05)
(0.691919 0.328283 0.05)
(0.691919 0.324242 0.05)
(0.691919 0.320202 0.05)
(0.691919 0.316162 0.05)
(0.691919 0.312121 0.05)
(0.691919 0.308081 0.05)
(0.691919 0.30404 0.05)
(0.687879 0.69596 0.05)
(0.687879 0.691919 0.05)
(0.687879 0.687879 0.05)
(0.687879 0.683838 0.05)
(0.687879 0.679798 0.05)
(0.687879 0.675758 0.05)
(0.687879 0.671717 0.05)
(0.687879 0.667677 0.05)
(0.687879 0.663636 0.05)
(0.687879 0.659596 0.05)
(0.687879 0.655556 0.05)
(0.687879 0.651515 0.05)
(0.687879 0.647475 0.05)
(0.687879 0.643434 0.05)
(0.687879 0.639394 0.05)
(0.687879 0.635354 0.05)
(0.687879 0.631313 0.05)
(0.687879 0.627273 0.05)
(0.687879 0.623232 0.05)
(0.687879 0.619192 0.05)
(0.687879 0.615152 0.05)
(0.687879 0.611111 0.05)
(0.687879 0.607071 0.05)
(0.687879 0.60303 0.05)
(0.687879 0.59899 0.05)
(0.687879 0.594949 0.05)
(0.687879 0.590909 0.05)
(0.687879 0.586869 0.05)
(0.687879 0.582828 0.05)
(0.687879 0.578788 0.05)
(0.687879 0.574747 0.05)
(0.687879 0.570707 0.05)
(0.687879 0.566667 0.05)
(0.687879 0.562626 0.05)
(0.687879 0.558586 0.05)
(0.687879 0.554545 0.05)
(0.687879 0.550505 0.05)
(0.687879 0.546465 0.05)
(0.687879 0.542424 0.05)
(0.687879 0.538384 0.05)
(0.687879 0.534343 0.05)
(0.687879 0.530303 0.05)
(0.687879 0.526263 0.05)
(0.687879 0.522222 0.05)
(0.687879 0.518182 0.05)
(0.687879 0.514141 0.05)
(0.687879 0.510101 0.05)
(0.687879 0.506061 0.05)
(0.687879 0.50202 0.05)
(0.687879 0.49798 0.05)
(0.687879 0.493939 0.05)
(0.687879 0.489899 0.05)
(0.687879 0.485859 0.05)
(0.687879 0.481818 0.05)
(0.687879 0.477778 0.05)
(0.687879 0.473737 0.05)
(0.687879 0.469697 0.05)
(0.687879 0.465657 0.05)
(0.687879 0.461616 0.05)
(0.687879 0.457576 0.05)
(0.687879 0.453535 0.05)
(0.687879 0.449495 0.05)
(0.687879 0.445455 0.05)
(0.687879 0.441414 0.05)
(0.687879 0.437374 0.05)
(0.687879 0.433333 0.05)
(0.687879 0.429293 0.05)
(0.687879 0.425253 0.05)
(0.687879 0.421212 0.05)
(0.687879 0.417172 0.05)
(0.687879 0.413131 0.05)
(0.687879 0.409091 0.05)
(0.687879 0.405051 0.05)
(0.687879 0.40101 0.05)
(0.687879 0.39697 0.05)
(0.687879 0.392929 0.05)
(0.687879 0.388889 0.05)
(0.687879 0.384848 0.05)
(0.687879 0.380808 0.05)
(0.687879 0.376768 0.05)
(0.687879 0.372727 0.05)
(0.687879 0.368687 0.05)
(0.687879 0.364646 0.05)
(0.687879 0.360606 0.05)
(0.687879 0.356566 0.05)
(0.687879 0.352525 0.05)
(0.687879 0.348485 0.05)
(0.687879 0.344444 0.05)
(0.687879 0.340404 0.05)
(0.687879 0.336364 0.05)
(0.687879 0.332323 0.05)
(0.687879 0.328283 0.05)
(0.687879 0.324242 0.05)
(0.687879 0.320202 0.05)
(0.687879 0.316162 0.05)
(0.687879 0.312121 0.05)
(0.687879 0.308081 0.05)
(0.687879 0.30404 0.05)
(0.683838 0.69596 0.05)
(0.683838 0.691919 0.05)
(0.683838 0.687879 0.05)
(0.683838 0.683838 0.05)
(0.683838 0.679798 0.05)
(0.683838 0.675758 0.05)
(0.683838 0.671717 0.05)
(0.683838 0.667677 0.05)
(0.683838 0.663636 0.05)
(0.683838 0.659596 0.05)
(0.683838 0.655556 0.05)
(0.683838 0.651515 0.05)
(0.683838 0.647475 0.05)
(0.683838 0.643434 0.05)
(0.683838 0.639394 0.05)
(0.683838 0.635354 0.05)
(0.683838 0.631313 0.05)
(0.683838 0.627273 0.05)
(0.683838 0.623232 0.05)
(0.683838 0.619192 0.05)
(0.683838 0.615152 0.05)
(0.683838 0.611111 0.05)
(0.683838 0.607071 0.05)
(0.683838 0.60303 0.05)
(0.683838 0.59899 0.05)
(0.683838 0.594949 0.05)
(0.683838 0.590909 0.05)
(0.683838 0.586869 0.05)
(0.683838 0.582828 0.05)
(0.683838 0.578788 0.05)
(0.683838 0.574747 0.05)
(0.683838 0.570707 0.05)
(0.683838 0.566667 0.05)
(0.683838 0.562626 0.05)
(0.683838 0.558586 0.05)
(0.683838 0.554545 0.05)
(0.683838 0.550505 0.05)
(0.683838 0.546465 0.05)
(0.683838 0.542424 0.05)
(0.683838 0.538384 0.05)
(0.683838 0.534343 0.05)
(0.683838 0.530303 0.05)
(0.683838 0.526263 0.05)
(0.683838 0.522222 0.05)
(0.683838 0.518182 0.05)
(0.683838 0.514141 0.05)
(0.683838 0.510101 0.05)
(0.683838 0.506061 0.05)
(0.683838 0.50202 0.05)
(0.683838 0.49798 0.05)
(0.683838 0.493939 0.05)
(0.683838 0.489899 0.05)
(0.683838 0.485859 0.05)
(0.683838 0.481818 0.05)
(0.683838 0.477778 0.05)
(0.683838 0.473737 0.05)
(0.683838 0.469697 0.05)
(0.683838 0.465657 0.05)
(0.683838 0.461616 0.05)
(0.683838 0.457576 0.05)
(0.683838 0.453535 0.05)
(0.683838 0.449495 0.05)
(0.683838 0.445455 0.05)
(0.683838 0.441414 0.05)
(0.683838 0.437374 0.05)
(0.683838 0.433333 0.05)
(0.683838 0.429293 0.05)
(0.683838 0.425253 0.05)
(0.683838 0.421212 0.05)
(0.683838 0.417172 0.05)
(0.683838 0.413131 0.05)
(0.683838 0.409091 0.05)
(0.683838 0.405051 0.05)
(0.683838 0.40101 0.05)
(0.683838 0.39697 0.05)
(0.683838 0.392929 0.05)
(0.683838 0.388889 0.05)
(0.683838 0.384848 0.05)
(0.683838 0.380808 0.05)
(0.683838 0.376768 0.05)
(0.683838 0.372727 0.05)
(0.683838 0.368687 0.05)
(0.683838 0.364646 0.05)
(0.683838 0.360606 0.05)
(0.683838 0.356566 0.05)
(0.683838 0.352525 0.05)
(0.683838 0.348485 0.05)
(0.683838 0.344444 0.05)
(0.683838 0.340404 0.05)
(0.683838 0.336364 0.05)
(0.683838 0.332323 0.05)
(0.683838 0.328283 0.05)
(0.683838 0.324242 0.05)
(0.683838 0.320202 0.05)
(0.683838 0.316162 0.05)
(0.683838 0.312121 0.05)
(0.683838 0.308081 0.05)
(0.683838 0.30404 0.05)
(0.679798 0.69596 0.05)
(0.679798 0.691919 0.05)
(0.679798 0.687879 0.05)
(0.679798 0.683838 0.05)
(0.679798 0.679798 0.05)
(0.679798 0.675758 0.05)
(0.679798 0.671717 0.05)
(0.679798 0.667677 0.05)
(0.679798 0.663636 0.05)
(0.679798 0.659596 0.05)
(0.679798 0.655556 0.05)
(0.679798 0.651515 0.05)
(0.679798 0.647475 0.05)
(0.679798 0.643434 0.05)
(0.679798 0.639394 0.05)
(0.679798 0.635354 0.05)
(0.679798 0.631313 0.05)
(0.679798 0.627273 0.05)
(0.679798 0.623232 0.05)
(0.679798 0.619192 0.05)
(0.679798 0.615152 0.05)
(0.679798 0.611111 0.05)
(0.679798 0.607071 0.05)
(0.679798 0.60303 0.05)
(0.679798 0.59899 0.05)
(0.679798 0.594949 0.05)
(0.679798 0.590909 0.05)
(0.679798 0.586869 0.05)
(0.679798 0.582828 0.05)
(0.679798 0.578788 0.05)
(0.679798 0.574747 0.05)
(0.679798 0.570707 0.05)
(0.679798 0.566667 0.05)
(0.679798 0.562626 0.05)
(0.679798 0.558586 0.05)
(0.679798 0.554545 0.05)
(0.679798 0.550505 0.05)
(0.679798 0.546465 0.05)
(0.679798 0.542424 0.05)
(0.679798 0.538384 0.05)
(0.679798 0.534343 0.05)
(0.679798 0.530303 0.05)
(0.679798 0.526263 0.05)
(0.679798 0.522222 0.05)
(0.679798 0.518182 0.05)
(0.679798 0.514141 0.05)
(0.679798 0.510101 0.05)
(0.679798 0.506061 0.05)
(0.679798 0.50202 0.05)
(0.679798 0.49798 0.05)
(0.679798 0.493939 0.05)
(0.679798 0.489899 0.05)
(0.679798 0.485859 0.05)
(0.679798 0.481818 0.05)
(0.679798 0.477778 0.05)
(0.679798 0.473737 0.05)
(0.679798 0.469697 0.05)
(0.679798 0.465657 0.05)
(0.679798 0.461616 0.05)
(0.679798 0.457576 0.05)
(0.679798 0.453535 0.05)
(0.679798 0.449495 0.05)
(0.679798 0.445455 0.05)
(0.679798 0.441414 0.05)
(0.679798 0.437374 0.05)
(0.679798 0.433333 0.05)
(0.679798 0.429293 0.05)
(0.679798 0.425253 0.05)
(0.679798 0.421212 0.05)
(0.679798 0.417172 0.05)
(0.679798 0.413131 0.05)
(0.679798 0.409091 0.05)
(0.679798 0.405051 0.05)
(0.679798 0.40101 0.05)
(0.679798 0.39697 0.05)
(0.679798 0.392929 0.05)
(0.679798 0.388889 0.05)
(0.679798 0.384848 0.05)
(0.679798 0.380808 0.05)
(0.679798 0.376768 0.05)
(0.679798 0.372727 0.05)
(0.679798 0.368687 0.05)
(0.679798 0.364646 0.05)
(0.679798 0.360606 0.05)
(0.679798 0.356566 0.05)
(0.679798 0.352525 0.05)
(0.679798 0.348485 0.05)
(0.679798 0.344444 0.05)
(0.679798 0.340404 0.05)
(0.679798 0.336364 0.05)
(0.679798 0.332323 0.05)
(0.679798 0.328283 0.05)
(0.679798 0.324242 0.05)
(0.679798 0.320202 0.05)
(0.679798 0.316162 0.05)
(0.679798 0.312121 0.05)
(0.679798 0.308081 0.05)
(0.679798 0.30404 0.05)
(0.675758 0.69596 0.05)
(0.675758 0.691919 0.05)
(0.675758 0.687879 0.05)
(0.675758 0.683838 0.05)
(0.675758 0.679798 0.05)
(0.675758 0.675758 0.05)
(0.675758 0.671717 0.05)
(0.675758 0.667677 0.05)
(0.675758 0.663636 0.05)
(0.675758 0.659596 0.05)
(0.675758 0.655556 0.05)
(0.675758 0.651515 0.05)
(0.675758 0.647475 0.05)
(0.675758 0.643434 0.05)
(0.675758 0.639394 0.05)
(0.675758 0.635354 0.05)
(0.675758 0.631313 0.05)
(0.675758 0.627273 0.05)
(0.675758 0.623232 0.05)
(0.675758 0.619192 0.05)
(0.675758 0.615152 0.05)
(0.675758 0.611111 0.05)
(0.675758 0.607071 0.05)
(0.675758 0.60303 0.05)
(0.675758 0.59899 0.05)
(0.675758 0.594949 0.05)
(0.675758 0.590909 0.05)
(0.675758 0.586869 0.05)
(0.675758 0.582828 0.05)
(0.675758 0.578788 0.05)
(0.675758 0.574747 0.05)
(0.675758 0.570707 0.05)
(0.675758 0.566667 0.05)
(0.675758 0.562626 0.05)
(0.675758 0.558586 0.05)
(0.675758 0.554545 0.05)
(0.675758 0.550505 0.05)
(0.675758 0.546465 0.05)
(0.675758 0.542424 0.05)
(0.675758 0.538384 0.05)
(0.675758 0.534343 0.05)
(0.675758 0.530303 0.05)
(0.675758 0.526263 0.05)
(0.675758 0.522222 0.05)
(0.675758 0.518182 0.05)
(0.675758 0.514141 0.05)
(0.675758 0.510101 0.05)
(0.675758 0.506061 0.05)
(0.675758 0.50202 0.05)
(0.675758 0.49798 0.05)
(0.675758 0.493939 0.05)
(0.675758 0.489899 0.05)
(0.675758 0.485859 0.05)
(0.675758 0.481818 0.05)
(0.675758 0.477778 0.05)
(0.675758 0.473737 0.05)
(0.675758 0.469697 0.05)
(0.675758 0.465657 0.05)
(0.675758 0.461616 0.05)
(0.675758 0.457576 0.05)
(0.675758 0.453535 0.05)
(0.675758 0.449495 0.05)
(0.675758 0.445455 0.05)
(0.675758 0.441414 0.05)
(0.675758 0.437374 0.05)
(0.675758 0.433333 0.05)
(0.675758 0.429293 0.05)
(0.675758 0.425253 0.05)
(0.675758 0.421212 0.05)
(0.675758 0.417172 0.05)
(0.675758 0.413131 0.05)
(0.675758 0.409091 0.05)
(0.675758 0.405051 0.05)
(0.675758 0.40101 0.05)
(0.675758 0.39697 0.05)
(0.675758 0.392929 0.05)
(0.675758 0.388889 0.05)
(0.675758 0.384848 0.05)
(0.675758 0.380808 0.05)
(0.675758 0.376768 0.05)
(0.675758 0.372727 0.05)
(0.675758 0.368687 0.05)
(0.675758 0.364646 0.05)
(0.675758 0.360606 0.05)
(0.675758 0.356566 0.05)
(0.675758 0.352525 0.05)
(0.675758 0.348485 0.05)
(0.675758 0.344444 0.05)
(0.675758 0.340404 0.05)
(0.675758 0.336364 0.05)
(0.675758 0.332323 0.05)
(0.675758 0.328283 0.05)
(0.675758 0.324242 0.05)
(0.675758 0.320202 0.05)
(0.675758 0.316162 0.05)
(0.675758 0.312121 0.05)
(0.675758 0.308081 0.05)
(0.675758 0.30404 0.05)
(0.671717 0.69596 0.05)
(0.671717 0.691919 0.05)
(0.671717 0.687879 0.05)
(0.671717 0.683838 0.05)
(0.671717 0.679798 0.05)
(0.671717 0.675758 0.05)
(0.671717 0.671717 0.05)
(0.671717 0.667677 0.05)
(0.671717 0.663636 0.05)
(0.671717 0.659596 0.05)
(0.671717 0.655556 0.05)
(0.671717 0.651515 0.05)
(0.671717 0.647475 0.05)
(0.671717 0.643434 0.05)
(0.671717 0.639394 0.05)
(0.671717 0.635354 0.05)
(0.671717 0.631313 0.05)
(0.671717 0.627273 0.05)
(0.671717 0.623232 0.05)
(0.671717 0.619192 0.05)
(0.671717 0.615152 0.05)
(0.671717 0.611111 0.05)
(0.671717 0.607071 0.05)
(0.671717 0.60303 0.05)
(0.671717 0.59899 0.05)
(0.671717 0.594949 0.05)
(0.671717 0.590909 0.05)
(0.671717 0.586869 0.05)
(0.671717 0.582828 0.05)
(0.671717 0.578788 0.05)
(0.671717 0.574747 0.05)
(0.671717 0.570707 0.05)
(0.671717 0.566667 0.05)
(0.671717 0.562626 0.05)
(0.671717 0.558586 0.05)
(0.671717 0.554545 0.05)
(0.671717 0.550505 0.05)
(0.671717 0.546465 0.05)
(0.671717 0.542424 0.05)
(0.671717 0.538384 0.05)
(0.671717 0.534343 0.05)
(0.671717 0.530303 0.05)
(0.671717 0.526263 0.05)
(0.671717 0.522222 0.05)
(0.671717 0.518182 0.05)
(0.671717 0.514141 0.05)
(0.671717 0.510101 0.05)
(0.671717 0.506061 0.05)
(0.671717 0.50202 0.05)
(0.671717 0.49798 0.05)
(0.671717 0.493939 0.05)
(0.671717 0.489899 0.05)
(0.671717 0.485859 0.05)
(0.671717 0.481818 0.05)
(0.671717 0.477778 0.05)
(0.671717 0.473737 0.05)
(0.671717 0.469697 0.05)
(0.671717 0.465657 0.05)
(0.671717 0.461616 0.05)
(0.671717 0.457576 0.05)
(0.671717 0.453535 0.05)
(0.671717 0.449495 0.05)
(0.671717 0.445455 0.05)
(0.671717 0.441414 0.05)
(0.671717 0.437374 0.05)
(0.671717 0.433333 0.05)
(0.671717 0.429293 0.05)
(0.671717 0.425253 0.05)
(0.671717 0.421212 0.05)
(0.671717 0.417172 0.05)
(0.671717 0.413131 0.05)
(0.671717 0.409091 0.05)
(0.671717 0.405051 0.05)
(0.671717 0.40101 0.05)
(0.671717 0.39697 0.05)
(0.671717 0.392929 0.05)
(0.671717 0.388889 0.05)
(0.671717 0.384848 0.05)
(0.671717 0.380808 0.05)
(0.671717 0.376768 0.05)
(0.671717 0.372727 0.05)
(0.671717 0.368687 0.05)
(0.671717 0.364646 0.05)
(0.671717 0.360606 0.05)
(0.671717 0.356566 0.05)
(0.671717 0.352525 0.05)
(0.671717 0.348485 0.05)
(0.671717 0.344444 0.05)
(0.671717 0.340404 0.05)
(0.671717 0.336364 0.05)
(0.671717 0.332323 0.05)
(0.671717 0.328283 0.05)
(0.671717 0.324242 0.05)
(0.671717 0.320202 0.05)
(0.671717 0.316162 0.05)
(0.671717 0.312121 0.05)
(0.671717 0.308081 0.05)
(0.671717 0.30404 0.05)
(0.667677 0.69596 0.05)
(0.667677 0.691919 0.05)
(0.667677 0.687879 0.05)
(0.667677 0.683838 0.05)
(0.667677 0.679798 0.05)
(0.667677 0.675758 0.05)
(0.667677 0.671717 0.05)
(0.667677 0.667677 0.05)
(0.667677 0.663636 0.05)
(0.667677 0.659596 0.05)
(0.667677 0.655556 0.05)
(0.667677 0.651515 0.05)
(0.667677 0.647475 0.05)
(0.667677 0.643434 0.05)
(0.667677 0.639394 0.05)
(0.667677 0.635354 0.05)
(0.667677 0.631313 0.05)
(0.667677 0.627273 0.05)
(0.667677 0.623232 0.05)
(0.667677 0.619192 0.05)
(0.667677 0.615152 0.05)
(0.667677 0.611111 0.05)
(0.667677 0.607071 0.05)
(0.667677 0.60303 0.05)
(0.667677 0.59899 0.05)
(0.667677 0.594949 0.05)
(0.667677 0.590909 0.05)
(0.667677 0.586869 0.05)
(0.667677 0.582828 0.05)
(0.667677 0.578788 0.05)
(0.667677 0.574747 0.05)
(0.667677 0.570707 0.05)
(0.667677 0.566667 0.05)
(0.667677 0.562626 0.05)
(0.667677 0.558586 0.05)
(0.667677 0.554545 0.05)
(0.667677 0.550505 0.05)
(0.667677 0.546465 0.05)
(0.667677 0.542424 0.05)
(0.667677 0.538384 0.05)
(0.667677 0.534343 0.05)
(0.667677 0.530303 0.05)
(0.667677 0.526263 0.05)
(0.667677 0.522222 0.05)
(0.667677 0.518182 0.05)
(0.667677 0.514141 0.05)
(0.667677 0.510101 0.05)
(0.667677 0.506061 0.05)
(0.667677 0.50202 0.05)
(0.667677 0.49798 0.05)
(0.667677 0.493939 0.05)
(0.667677 0.489899 0.05)
(0.667677 0.485859 0.05)
(0.667677 0.481818 0.05)
(0.667677 0.477778 0.05)
(0.667677 0.473737 0.05)
(0.667677 0.469697 0.05)
(0.667677 0.465657 0.05)
(0.667677 0.461616 0.05)
(0.667677 0.457576 0.05)
(0.667677 0.453535 0.05)
(0.667677 0.449495 0.05)
(0.667677 0.445455 0.05)
(0.667677 0.441414 0.05)
(0.667677 0.437374 0.05)
(0.667677 0.433333 0.05)
(0.667677 0.429293 0.05)
(0.667677 0.425253 0.05)
(0.667677 0.421212 0.05)
(0.667677 0.417172 0.05)
(0.667677 0.413131 0.05)
(0.667677 0.409091 0.05)
(0.667677 0.405051 0.05)
(0.667677 0.40101 0.05)
(0.667677 0.39697 0.05)
(0.667677 0.392929 0.05)
(0.667677 0.388889 0.05)
(0.667677 0.384848 0.05)
(0.667677 0.380808 0.05)
(0.667677 0.376768 0.05)
(0.667677 0.372727 0.05)
(0.667677 0.368687 0.05)
(0.667677 0.364646 0.05)
(0.667677 0.360606 0.05)
(0.667677 0.356566 0.05)
(0.667677 0.352525 0.05)
(0.667677 0.348485 0.05)
(0.667677 0.344444 0.05)
(0.667677 0.340404 0.05)
(0.667677 0.336364 0.05)
(0.667677 0.332323 0.05)
(0.667677 0.328283 0.05)
(0.667677 0.324242 0.05)
(0.667677 0.320202 0.05)
(0.667677 0.316162 0.05)
(0.667677 0.312121 0.05)
(0.667677 0.308081 0.05)
(0.667677 0.30404 0.05)
(0.663636 0.69596 0.05)
(0.663636 0.691919 0.05)
(0.663636 0.687879 0.05)
(0.663636 0.683838 0.05)
(0.663636 0.679798 0.05)
(0.663636 0.675758 0.05)
(0.663636 0.671717 0.05)
(0.663636 0.667677 0.05)
(0.663636 0.663636 0.05)
(0.663636 0.659596 0.05)
(0.663636 0.655556 0.05)
(0.663636 0.651515 0.05)
(0.663636 0.647475 0.05)
(0.663636 0.643434 0.05)
(0.663636 0.639394 0.05)
(0.663636 0.635354 0.05)
(0.663636 0.631313 0.05)
(0.663636 0.627273 0.05)
(0.663636 0.623232 0.05)
(0.663636 0.619192 0.05)
(0.663636 0.615152 0.05)
(0.663636 0.611111 0.05)
(0.663636 0.607071 0.05)
(0.663636 0.60303 0.05)
(0.663636 0.59899 0.05)
(0.663636 0.594949 0.05)
(0.663636 0.590909 0.05)
(0.663636 0.586869 0.05)
(0.663636 0.582828 0.05)
(0.663636 0.578788 0.05)
(0.663636 0.574747 0.05)
(0.663636 0.570707 0.05)
(0.663636 0.566667 0.05)
(0.663636 0.562626 0.05)
(0.663636 0.558586 0.05)
(0.663636 0.554545 0.05)
(0.663636 0.550505 0.05)
(0.663636 0.546465 0.05)
(0.663636 0.542424 0.05)
(0.663636 0.538384 0.05)
(0.663636 0.534343 0.05)
(0.663636 0.530303 0.05)
(0.663636 0.526263 0.05)
(0.663636 0.522222 0.05)
(0.663636 0.518182 0.05)
(0.663636 0.514141 0.05)
(0.663636 0.510101 0.05)
(0.663636 0.506061 0.05)
(0.663636 0.50202 0.05)
(0.663636 0.49798 0.05)
(0.663636 0.493939 0.05)
(0.663636 0.489899 0.05)
(0.663636 0.485859 0.05)
(0.663636 0.481818 0.05)
(0.663636 0.477778 0.05)
(0.663636 0.473737 0.05)
(0.663636 0.469697 0.05)
(0.663636 0.465657 0.05)
(0.663636 0.461616 0.05)
(0.663636 0.457576 0.05)
(0.663636 0.453535 0.05)
(0.663636 0.449495 0.05)
(0.663636 0.445455 0.05)
(0.663636 0.441414 0.05)
(0.663636 0.437374 0.05)
(0.663636 0.433333 0.05)
(0.663636 0.429293 0.05)
(0.663636 0.425253 0.05)
(0.663636 0.421212 0.05)
(0.663636 0.417172 0.05)
(0.663636 0.413131 0.05)
(0.663636 0.409091 0.05)
(0.663636 0.405051 0.05)
(0.663636 0.40101 0.05)
(0.663636 0.39697 0.05)
(0.663636 0.392929 0.05)