/*--------------------------------*- C++ -*----------------------------------*\
| =========                 |                                                 |
| \\      /  F ield         | OpenFOAM: The Open Source CFD Toolbox           |
|  \\    /   O peration     | Version:  v1806                                 |
|   \\  /    A nd           | Web:      www.OpenFOAM.com                      |
|    \\/     M anipulation  |                                                 |
\*---------------------------------------------------------------------------*/
FoamFile
{
    version     2.0;
    format      ascii;
    class       labelListList;
    location    "constant";
    object      connectivity;
}
// * * * * * * * * * * * * * * * * * * * * * * * * * * * * * * * * * * * * * //


19602
(
3(2 200 199)
3(199 200 396)
3(199 396 198)
3(198 396 397)
3(198 397 197)
3(197 397 398)
3(197 398 196)
3(196 398 399)
3(196 399 195)
3(195 399 400)
3(195 400 194)
3(194 400 401)
3(194 401 193)
3(193 401 402)
3(193 402 192)
3(192 402 403)
3(192 403 191)
3(191 403 404)
3(191 404 190)
3(190 404 405)
3(190 405 189)
3(189 405 406)
3(189 406 188)
3(188 406 407)
3(188 407 187)
3(187 407 408)
3(187 408 186)
3(186 408 409)
3(186 409 185)
3(185 409 410)
3(185 410 184)
3(184 410 411)
3(184 411 183)
3(183 411 412)
3(183 412 182)
3(182 412 413)
3(182 413 181)
3(181 413 414)
3(181 414 180)
3(180 414 415)
3(180 415 179)
3(179 415 416)
3(179 416 178)
3(178 416 417)
3(178 417 177)
3(177 417 418)
3(177 418 176)
3(176 418 419)
3(176 419 175)
3(175 419 420)
3(175 420 174)
3(174 420 421)
3(174 421 173)
3(173 421 422)
3(173 422 172)
3(172 422 423)
3(172 423 171)
3(171 423 424)
3(171 424 170)
3(170 424 425)
3(170 425 169)
3(169 425 426)
3(169 426 168)
3(168 426 427)
3(168 427 167)
3(167 427 428)
3(167 428 166)
3(166 428 429)
3(166 429 165)
3(165 429 430)
3(165 430 164)
3(164 430 431)
3(164 431 163)
3(163 431 432)
3(163 432 162)
3(162 432 433)
3(162 433 161)
3(161 433 434)
3(161 434 160)
3(160 434 435)
3(160 435 159)
3(159 435 436)
3(159 436 158)
3(158 436 437)
3(158 437 157)
3(157 437 438)
3(157 438 156)
3(156 438 439)
3(156 439 155)
3(155 439 440)
3(155 440 154)
3(154 440 441)
3(154 441 153)
3(153 441 442)
3(153 442 152)
3(152 442 443)
3(152 443 151)
3(151 443 444)
3(151 444 150)
3(150 444 445)
3(150 445 149)
3(149 445 446)
3(149 446 148)
3(148 446 447)
3(148 447 147)
3(147 447 448)
3(147 448 146)
3(146 448 449)
3(146 449 145)
3(145 449 450)
3(145 450 144)
3(144 450 451)
3(144 451 143)
3(143 451 452)
3(143 452 142)
3(142 452 453)
3(142 453 141)
3(141 453 454)
3(141 454 140)
3(140 454 455)
3(140 455 139)
3(139 455 456)
3(139 456 138)
3(138 456 457)
3(138 457 137)
3(137 457 458)
3(137 458 136)
3(136 458 459)
3(136 459 135)
3(135 459 460)
3(135 460 134)
3(134 460 461)
3(134 461 133)
3(133 461 462)
3(133 462 132)
3(132 462 463)
3(132 463 131)
3(131 463 464)
3(131 464 130)
3(130 464 465)
3(130 465 129)
3(129 465 466)
3(129 466 128)
3(128 466 467)
3(128 467 127)
3(127 467 468)
3(127 468 126)
3(126 468 469)
3(126 469 125)
3(125 469 470)
3(125 470 124)
3(124 470 471)
3(124 471 123)
3(123 471 472)
3(123 472 122)
3(122 472 473)
3(122 473 121)
3(121 473 474)
3(121 474 120)
3(120 474 475)
3(120 475 119)
3(119 475 476)
3(119 476 118)
3(118 476 477)
3(118 477 117)
3(117 477 478)
3(117 478 116)
3(116 478 479)
3(116 479 115)
3(115 479 480)
3(115 480 114)
3(114 480 481)
3(114 481 113)
3(113 481 482)
3(113 482 112)
3(112 482 483)
3(112 483 111)
3(111 483 484)
3(111 484 110)
3(110 484 485)
3(110 485 109)
3(109 485 486)
3(109 486 108)
3(108 486 487)
3(108 487 107)
3(107 487 488)
3(107 488 106)
3(106 488 489)
3(106 489 105)
3(105 489 490)
3(105 490 104)
3(104 490 491)
3(104 491 103)
3(103 491 492)
3(103 492 102)
3(102 492 493)
3(102 493 1)
3(1 493 4)
3(200 201 396)
3(396 201 494)
3(396 494 397)
3(397 494 495)
3(397 495 398)
3(398 495 496)
3(398 496 399)
3(399 496 497)
3(399 497 400)
3(400 497 498)
3(400 498 401)
3(401 498 499)
3(401 499 402)
3(402 499 500)
3(402 500 403)
3(403 500 501)
3(403 501 404)
3(404 501 502)
3(404 502 405)
3(405 502 503)
3(405 503 406)
3(406 503 504)
3(406 504 407)
3(407 504 505)
3(407 505 408)
3(408 505 506)
3(408 506 409)
3(409 506 507)
3(409 507 410)
3(410 507 508)
3(410 508 411)
3(411 508 509)
3(411 509 412)
3(412 509 510)
3(412 510 413)
3(413 510 511)
3(413 511 414)
3(414 511 512)
3(414 512 415)
3(415 512 513)
3(415 513 416)
3(416 513 514)
3(416 514 417)
3(417 514 515)
3(417 515 418)
3(418 515 516)
3(418 516 419)
3(419 516 517)
3(419 517 420)
3(420 517 518)
3(420 518 421)
3(421 518 519)
3(421 519 422)
3(422 519 520)
3(422 520 423)
3(423 520 521)
3(423 521 424)
3(424 521 522)
3(424 522 425)
3(425 522 523)
3(425 523 426)
3(426 523 524)
3(426 524 427)
3(427 524 525)
3(427 525 428)
3(428 525 526)
3(428 526 429)
3(429 526 527)
3(429 527 430)
3(430 527 528)
3(430 528 431)
3(431 528 529)
3(431 529 432)
3(432 529 530)
3(432 530 433)
3(433 530 531)
3(433 531 434)
3(434 531 532)
3(434 532 435)
3(435 532 533)
3(435 533 436)
3(436 533 534)
3(436 534 437)
3(437 534 535)
3(437 535 438)
3(438 535 536)
3(438 536 439)
3(439 536 537)
3(439 537 440)
3(440 537 538)
3(440 538 441)
3(441 538 539)
3(441 539 442)
3(442 539 540)
3(442 540 443)
3(443 540 541)
3(443 541 444)
3(444 541 542)
3(444 542 445)
3(445 542 543)
3(445 543 446)
3(446 543 544)
3(446 544 447)
3(447 544 545)
3(447 545 448)
3(448 545 546)
3(448 546 449)
3(449 546 547)
3(449 547 450)
3(450 547 548)
3(450 548 451)
3(451 548 549)
3(451 549 452)
3(452 549 550)
3(452 550 453)
3(453 550 551)
3(453 551 454)
3(454 551 552)
3(454 552 455)
3(455 552 553)
3(455 553 456)
3(456 553 554)
3(456 554 457)
3(457 554 555)
3(457 555 458)
3(458 555 556)
3(458 556 459)
3(459 556 557)
3(459 557 460)
3(460 557 558)
3(460 558 461)
3(461 558 559)
3(461 559 462)
3(462 559 560)
3(462 560 463)
3(463 560 561)
3(463 561 464)
3(464 561 562)
3(464 562 465)
3(465 562 563)
3(465 563 466)
3(466 563 564)
3(466 564 467)
3(467 564 565)
3(467 565 468)
3(468 565 566)
3(468 566 469)
3(469 566 567)
3(469 567 470)
3(470 567 568)
3(470 568 471)
3(471 568 569)
3(471 569 472)
3(472 569 570)
3(472 570 473)
3(473 570 571)
3(473 571 474)
3(474 571 572)
3(474 572 475)
3(475 572 573)
3(475 573 476)
3(476 573 574)
3(476 574 477)
3(477 574 575)
3(477 575 478)
3(478 575 576)
3(478 576 479)
3(479 576 577)
3(479 577 480)
3(480 577 578)
3(480 578 481)
3(481 578 579)
3(481 579 482)
3(482 579 580)
3(482 580 483)
3(483 580 581)
3(483 581 484)
3(484 581 582)
3(484 582 485)
3(485 582 583)
3(485 583 486)
3(486 583 584)
3(486 584 487)
3(487 584 585)
3(487 585 488)
3(488 585 586)
3(488 586 489)
3(489 586 587)
3(489 587 490)
3(490 587 588)
3(490 588 491)
3(491 588 589)
3(491 589 492)
3(492 589 590)
3(492 590 493)
3(493 590 591)
3(493 591 4)
3(4 591 5)
3(201 202 494)
3(494 202 592)
3(494 592 495)
3(495 592 593)
3(495 593 496)
3(496 593 594)
3(496 594 497)
3(497 594 595)
3(497 595 498)
3(498 595 596)
3(498 596 499)
3(499 596 597)
3(499 597 500)
3(500 597 598)
3(500 598 501)
3(501 598 599)
3(501 599 502)
3(502 599 600)
3(502 600 503)
3(503 600 601)
3(503 601 504)
3(504 601 602)
3(504 602 505)
3(505 602 603)
3(505 603 506)
3(506 603 604)
3(506 604 507)
3(507 604 605)
3(507 605 508)
3(508 605 606)
3(508 606 509)
3(509 606 607)
3(509 607 510)
3(510 607 608)
3(510 608 511)
3(511 608 609)
3(511 609 512)
3(512 609 610)
3(512 610 513)
3(513 610 611)
3(513 611 514)
3(514 611 612)
3(514 612 515)
3(515 612 613)
3(515 613 516)
3(516 613 614)
3(516 614 517)
3(517 614 615)
3(517 615 518)
3(518 615 616)
3(518 616 519)
3(519 616 617)
3(519 617 520)
3(520 617 618)
3(520 618 521)
3(521 618 619)
3(521 619 522)
3(522 619 620)
3(522 620 523)
3(523 620 621)
3(523 621 524)
3(524 621 622)
3(524 622 525)
3(525 622 623)
3(525 623 526)
3(526 623 624)
3(526 624 527)
3(527 624 625)
3(527 625 528)
3(528 625 626)
3(528 626 529)
3(529 626 627)
3(529 627 530)
3(530 627 628)
3(530 628 531)
3(531 628 629)
3(531 629 532)
3(532 629 630)
3(532 630 533)
3(533 630 631)
3(533 631 534)
3(534 631 632)
3(534 632 535)
3(535 632 633)
3(535 633 536)
3(536 633 634)
3(536 634 537)
3(537 634 635)
3(537 635 538)
3(538 635 636)
3(538 636 539)
3(539 636 637)
3(539 637 540)
3(540 637 638)
3(540 638 541)
3(541 638 639)
3(541 639 542)
3(542 639 640)
3(542 640 543)
3(543 640 641)
3(543 641 544)
3(544 641 642)
3(544 642 545)
3(545 642 643)
3(545 643 546)
3(546 643 644)
3(546 644 547)
3(547 644 645)
3(547 645 548)
3(548 645 646)
3(548 646 549)
3(549 646 647)
3(549 647 550)
3(550 647 648)
3(550 648 551)
3(551 648 649)
3(551 649 552)
3(552 649 650)
3(552 650 553)
3(553 650 651)
3(553 651 554)
3(554 651 652)
3(554 652 555)
3(555 652 653)
3(555 653 556)
3(556 653 654)
3(556 654 557)
3(557 654 655)
3(557 655 558)
3(558 655 656)
3(558 656 559)
3(559 656 657)
3(559 657 560)
3(560 657 658)
3(560 658 561)
3(561 658 659)
3(561 659 562)
3(562 659 660)
3(562 660 563)
3(563 660 661)
3(563 661 564)
3(564 661 662)
3(564 662 565)
3(565 662 663)
3(565 663 566)
3(566 663 664)
3(566 664 567)
3(567 664 665)
3(567 665 568)
3(568 665 666)
3(568 666 569)
3(569 666 667)
3(569 667 570)
3(570 667 668)
3(570 668 571)
3(571 668 669)
3(571 669 572)
3(572 669 670)
3(572 670 573)
3(573 670 671)
3(573 671 574)
3(574 671 672)
3(574 672 575)
3(575 672 673)
3(575 673 576)
3(576 673 674)
3(576 674 577)
3(577 674 675)
3(577 675 578)
3(578 675 676)
3(578 676 579)
3(579 676 677)
3(579 677 580)
3(580 677 678)
3(580 678 581)
3(581 678 679)
3(581 679 582)
3(582 679 680)
3(582 680 583)
3(583 680 681)
3(583 681 584)
3(584 681 682)
3(584 682 585)
3(585 682 683)
3(585 683 586)
3(586 683 684)
3(586 684 587)
3(587 684 685)
3(587 685 588)
3(588 685 686)
3(588 686 589)
3(589 686 687)
3(589 687 590)
3(590 687 688)
3(590 688 591)
3(591 688 689)
3(591 689 5)
3(5 689 6)
3(202 203 592)
3(592 203 690)
3(592 690 593)
3(593 690 691)
3(593 691 594)
3(594 691 692)
3(594 692 595)
3(595 692 693)
3(595 693 596)
3(596 693 694)
3(596 694 597)
3(597 694 695)
3(597 695 598)
3(598 695 696)
3(598 696 599)
3(599 696 697)
3(599 697 600)
3(600 697 698)
3(600 698 601)
3(601 698 699)
3(601 699 602)
3(602 699 700)
3(602 700 603)
3(603 700 701)
3(603 701 604)
3(604 701 702)
3(604 702 605)
3(605 702 703)
3(605 703 606)
3(606 703 704)
3(606 704 607)
3(607 704 705)
3(607 705 608)
3(608 705 706)
3(608 706 609)
3(609 706 707)
3(609 707 610)
3(610 707 708)
3(610 708 611)
3(611 708 709)
3(611 709 612)
3(612 709 710)
3(612 710 613)
3(613 710 711)
3(613 711 614)
3(614 711 712)
3(614 712 615)
3(615 712 713)
3(615 713 616)
3(616 713 714)
3(616 714 617)
3(617 714 715)
3(617 715 618)
3(618 715 716)
3(618 716 619)
3(619 716 717)
3(619 717 620)
3(620 717 718)
3(620 718 621)
3(621 718 719)
3(621 719 622)
3(622 719 720)
3(622 720 623)
3(623 720 721)
3(623 721 624)
3(624 721 722)
3(624 722 625)
3(625 722 723)
3(625 723 626)
3(626 723 724)
3(626 724 627)
3(627 724 725)
3(627 725 628)
3(628 725 726)
3(628 726 629)
3(629 726 727)
3(629 727 630)
3(630 727 728)
3(630 728 631)
3(631 728 729)
3(631 729 632)
3(632 729 730)
3(632 730 633)
3(633 730 731)
3(633 731 634)
3(634 731 732)
3(634 732 635)
3(635 732 733)
3(635 733 636)
3(636 733 734)
3(636 734 637)
3(637 734 735)
3(637 735 638)
3(638 735 736)
3(638 736 639)
3(639 736 737)
3(639 737 640)
3(640 737 738)
3(640 738 641)
3(641 738 739)
3(641 739 642)
3(642 739 740)
3(642 740 643)
3(643 740 741)
3(643 741 644)
3(644 741 742)
3(644 742 645)
3(645 742 743)
3(645 743 646)
3(646 743 744)
3(646 744 647)
3(647 744 745)
3(647 745 648)
3(648 745 746)
3(648 746 649)
3(649 746 747)
3(649 747 650)
3(650 747 748)
3(650 748 651)
3(651 748 749)
3(651 749 652)
3(652 749 750)
3(652 750 653)
3(653 750 751)
3(653 751 654)
3(654 751 752)
3(654 752 655)
3(655 752 753)
3(655 753 656)
3(656 753 754)
3(656 754 657)
3(657 754 755)
3(657 755 658)
3(658 755 756)
3(658 756 659)
3(659 756 757)
3(659 757 660)
3(660 757 758)
3(660 758 661)
3(661 758 759)
3(661 759 662)
3(662 759 760)
3(662 760 663)
3(663 760 761)
3(663 761 664)
3(664 761 762)
3(664 762 665)
3(665 762 763)
3(665 763 666)
3(666 763 764)
3(666 764 667)
3(667 764 765)
3(667 765 668)
3(668 765 766)
3(668 766 669)
3(669 766 767)
3(669 767 670)
3(670 767 768)
3(670 768 671)
3(671 768 769)
3(671 769 672)
3(672 769 770)
3(672 770 673)
3(673 770 771)
3(673 771 674)
3(674 771 772)
3(674 772 675)
3(675 772 773)
3(675 773 676)
3(676 773 774)
3(676 774 677)
3(677 774 775)
3(677 775 678)
3(678 775 776)
3(678 776 679)
3(679 776 777)
3(679 777 680)
3(680 777 778)
3(680 778 681)
3(681 778 779)
3(681 779 682)
3(682 779 780)
3(682 780 683)
3(683 780 781)
3(683 781 684)
3(684 781 782)
3(684 782 685)
3(685 782 783)
3(685 783 686)
3(686 783 784)
3(686 784 687)
3(687 784 785)
3(687 785 688)
3(688 785 786)
3(688 786 689)
3(689 786 787)
3(689 787 6)
3(6 787 7)
3(203 204 690)
3(690 204 788)
3(690 788 691)
3(691 788 789)
3(691 789 692)
3(692 789 790)
3(692 790 693)
3(693 790 791)
3(693 791 694)
3(694 791 792)
3(694 792 695)
3(695 792 793)
3(695 793 696)
3(696 793 794)
3(696 794 697)
3(697 794 795)
3(697 795 698)
3(698 795 796)
3(698 796 699)
3(699 796 797)
3(699 797 700)
3(700 797 798)
3(700 798 701)
3(701 798 799)
3(701 799 702)
3(702 799 800)
3(702 800 703)
3(703 800 801)
3(703 801 704)
3(704 801 802)
3(704 802 705)
3(705 802 803)
3(705 803 706)
3(706 803 804)
3(706 804 707)
3(707 804 805)
3(707 805 708)
3(708 805 806)
3(708 806 709)
3(709 806 807)
3(709 807 710)
3(710 807 808)
3(710 808 711)
3(711 808 809)
3(711 809 712)
3(712 809 810)
3(712 810 713)
3(713 810 811)
3(713 811 714)
3(714 811 812)
3(714 812 715)
3(715 812 813)
3(715 813 716)
3(716 813 814)
3(716 814 717)
3(717 814 815)
3(717 815 718)
3(718 815 816)
3(718 816 719)
3(719 816 817)
3(719 817 720)
3(720 817 818)
3(720 818 721)
3(721 818 819)
3(721 819 722)
3(722 819 820)
3(722 820 723)
3(723 820 821)
3(723 821 724)
3(724 821 822)
3(724 822 725)
3(725 822 823)
3(725 823 726)
3(726 823 824)
3(726 824 727)
3(727 824 825)
3(727 825 728)
3(728 825 826)
3(728 826 729)
3(729 826 827)
3(729 827 730)
3(730 827 828)
3(730 828 731)
3(731 828 829)
3(731 829 732)
3(732 829 830)
3(732 830 733)
3(733 830 831)
3(733 831 734)
3(734 831 832)
3(734 832 735)
3(735 832 833)
3(735 833 736)
3(736 833 834)
3(736 834 737)
3(737 834 835)
3(737 835 738)
3(738 835 836)
3(738 836 739)
3(739 836 837)
3(739 837 740)
3(740 837 838)
3(740 838 741)
3(741 838 839)
3(741 839 742)
3(742 839 840)
3(742 840 743)
3(743 840 841)
3(743 841 744)
3(744 841 842)
3(744 842 745)
3(745 842 843)
3(745 843 746)
3(746 843 844)
3(746 844 747)
3(747 844 845)
3(747 845 748)
3(748 845 846)
3(748 846 749)
3(749 846 847)
3(749 847 750)
3(750 847 848)
3(750 848 751)
3(751 848 849)
3(751 849 752)
3(752 849 850)
3(752 850 753)
3(753 850 851)
3(753 851 754)
3(754 851 852)
3(754 852 755)
3(755 852 853)
3(755 853 756)
3(756 853 854)
3(756 854 757)
3(757 854 855)
3(757 855 758)
3(758 855 856)
3(758 856 759)
3(759 856 857)
3(759 857 760)
3(760 857 858)
3(760 858 761)
3(761 858 859)
3(761 859 762)
3(762 859 860)
3(762 860 763)
3(763 860 861)
3(763 861 764)
3(764 861 862)
3(764 862 765)
3(765 862 863)
3(765 863 766)
3(766 863 864)
3(766 864 767)
3(767 864 865)
3(767 865 768)
3(768 865 866)
3(768 866 769)
3(769 866 867)
3(769 867 770)
3(770 867 868)
3(770 868 771)
3(771 868 869)
3(771 869 772)
3(772 869 870)
3(772 870 773)
3(773 870 871)
3(773 871 774)
3(774 871 872)
3(774 872 775)
3(775 872 873)
3(775 873 776)
3(776 873 874)
3(776 874 777)
3(777 874 875)
3(777 875 778)
3(778 875 876)
3(778 876 779)
3(779 876 877)
3(779 877 780)
3(780 877 878)
3(780 878 781)
3(781 878 879)
3(781 879 782)
3(782 879 880)
3(782 880 783)
3(783 880 881)
3(783 881 784)
3(784 881 882)
3(784 882 785)
3(785 882 883)
3(785 883 786)
3(786 883 884)
3(786 884 787)
3(787 884 885)
3(787 885 7)
3(7 885 8)
3(204 205 788)
3(788 205 886)
3(788 886 789)
3(789 886 887)
3(789 887 790)
3(790 887 888)
3(790 888 791)
3(791 888 889)
3(791 889 792)
3(792 889 890)
3(792 890 793)
3(793 890 891)
3(793 891 794)
3(794 891 892)
3(794 892 795)
3(795 892 893)
3(795 893 796)
3(796 893 894)
3(796 894 797)
3(797 894 895)
3(797 895 798)
3(798 895 896)
3(798 896 799)
3(799 896 897)
3(799 897 800)
3(800 897 898)
3(800 898 801)
3(801 898 899)
3(801 899 802)
3(802 899 900)
3(802 900 803)
3(803 900 901)
3(803 901 804)
3(804 901 902)
3(804 902 805)
3(805 902 903)
3(805 903 806)
3(806 903 904)
3(806 904 807)
3(807 904 905)
3(807 905 808)
3(808 905 906)
3(808 906 809)
3(809 906 907)
3(809 907 810)
3(810 907 908)
3(810 908 811)
3(811 908 909)
3(811 909 812)
3(812 909 910)
3(812 910 813)
3(813 910 911)
3(813 911 814)
3(814 911 912)
3(814 912 815)
3(815 912 913)
3(815 913 816)
3(816 913 914)
3(816 914 817)
3(817 914 915)
3(817 915 818)
3(818 915 916)
3(818 916 819)
3(819 916 917)
3(819 917 820)
3(820 917 918)
3(820 918 821)
3(821 918 919)
3(821 919 822)
3(822 919 920)
3(822 920 823)
3(823 920 921)
3(823 921 824)
3(824 921 922)
3(824 922 825)
3(825 922 923)
3(825 923 826)
3(826 923 924)
3(826 924 827)
3(827 924 925)
3(827 925 828)
3(828 925 926)
3(828 926 829)
3(829 926 927)
3(829 927 830)
3(830 927 928)
3(830 928 831)
3(831 928 929)
3(831 929 832)
3(832 929 930)
3(832 930 833)
3(833 930 931)
3(833 931 834)
3(834 931 932)
3(834 932 835)
3(835 932 933)
3(835 933 836)
3(836 933 934)
3(836 934 837)
3(837 934 935)
3(837 935 838)
3(838 935 936)
3(838 936 839)
3(839 936 937)
3(839 937 840)
3(840 937 938)
3(840 938 841)
3(841 938 939)
3(841 939 842)
3(842 939 940)
3(842 940 843)
3(843 940 941)
3(843 941 844)
3(844 941 942)
3(844 942 845)
3(845 942 943)
3(845 943 846)
3(846 943 944)
3(846 944 847)
3(847 944 945)
3(847 945 848)
3(848 945 946)
3(848 946 849)
3(849 946 947)
3(849 947 850)
3(850 947 948)
3(850 948 851)
3(851 948 949)
3(851 949 852)
3(852 949 950)
3(852 950 853)
3(853 950 951)
3(853 951 854)
3(854 951 952)
3(854 952 855)
3(855 952 953)
3(855 953 856)
3(856 953 954)
3(856 954 857)
3(857 954 955)
3(857 955 858)
3(858 955 956)
3(858 956 859)
3(859 956 957)
3(859 957 860)
3(860 957 958)
3(860 958 861)
3(861 958 959)
3(861 959 862)
3(862 959 960)
3(862 960 863)
3(863 960 961)
3(863 961 864)
3(864 961 962)
3(864 962 865)
3(865 962 963)
3(865 963 866)
3(866 963 964)
3(866 964 867)
3(867 964 965)
3(867 965 868)
3(868 965 966)
3(868 966 869)
3(869 966 967)
3(869 967 870)
3(870 967 968)
3(870 968 871)
3(871 968 969)
3(871 969 872)
3(872 969 970)
3(872 970 873)
3(873 970 971)
3(873 971 874)
3(874 971 972)
3(874 972 875)
3(875 972 973)
3(875 973 876)
3(876 973 974)
3(876 974 877)
3(877 974 975)
3(877 975 878)
3(878 975 976)
3(878 976 879)
3(879 976 977)
3(879 977 880)
3(880 977 978)
3(880 978 881)
3(881 978 979)
3(881 979 882)
3(882 979 980)
3(882 980 883)
3(883 980 981)
3(883 981 884)
3(884 981 982)
3(884 982 885)
3(885 982 983)
3(885 983 8)
3(8 983 9)
3(205 206 886)
3(886 206 984)
3(886 984 887)
3(887 984 985)
3(887 985 888)
3(888 985 986)
3(888 986 889)
3(889 986 987)
3(889 987 890)
3(890 987 988)
3(890 988 891)
3(891 988 989)
3(891 989 892)
3(892 989 990)
3(892 990 893)
3(893 990 991)
3(893 991 894)
3(894 991 992)
3(894 992 895)
3(895 992 993)
3(895 993 896)
3(896 993 994)
3(896 994 897)
3(897 994 995)
3(897 995 898)
3(898 995 996)
3(898 996 899)
3(899 996 997)
3(899 997 900)
3(900 997 998)
3(900 998 901)
3(901 998 999)
3(901 999 902)
3(902 999 1000)
3(902 1000 903)
3(903 1000 1001)
3(903 1001 904)
3(904 1001 1002)
3(904 1002 905)
3(905 1002 1003)
3(905 1003 906)
3(906 1003 1004)
3(906 1004 907)
3(907 1004 1005)
3(907 1005 908)
3(908 1005 1006)
3(908 1006 909)
3(909 1006 1007)
3(909 1007 910)
3(910 1007 1008)
3(910 1008 911)
3(911 1008 1009)
3(911 1009 912)
3(912 1009 1010)
3(912 1010 913)
3(913 1010 1011)
3(913 1011 914)
3(914 1011 1012)
3(914 1012 915)
3(915 1012 1013)
3(915 1013 916)
3(916 1013 1014)
3(916 1014 917)
3(917 1014 1015)
3(917 1015 918)
3(918 1015 1016)
3(918 1016 919)
3(919 1016 1017)
3(919 1017 920)
3(920 1017 1018)
3(920 1018 921)
3(921 1018 1019)
3(921 1019 922)
3(922 1019 1020)
3(922 1020 923)
3(923 1020 1021)
3(923 1021 924)
3(924 1021 1022)
3(924 1022 925)
3(925 1022 1023)
3(925 1023 926)
3(926 1023 1024)
3(926 1024 927)
3(927 1024 1025)
3(927 1025 928)
3(928 1025 1026)
3(928 1026 929)
3(929 1026 1027)
3(929 1027 930)
3(930 1027 1028)
3(930 1028 931)
3(931 1028 1029)
3(931 1029 932)
3(932 1029 1030)
3(932 1030 933)
3(933 1030 1031)
3(933 1031 934)
3(934 1031 1032)
3(934 1032 935)
3(935 1032 1033)
3(935 1033 936)
3(936 1033 1034)
3(936 1034 937)
3(937 1034 1035)
3(937 1035 938)
3(938 1035 1036)
3(938 1036 939)
3(939 1036 1037)
3(939 1037 940)
3(940 1037 1038)
3(940 1038 941)
3(941 1038 1039)
3(941 1039 942)
3(942 1039 1040)
3(942 1040 943)
3(943 1040 1041)
3(943 1041 944)
3(944 1041 1042)
3(944 1042 945)
3(945 1042 1043)
3(945 1043 946)
3(946 1043 1044)
3(946 1044 947)
3(947 1044 1045)
3(947 1045 948)
3(948 1045 1046)
3(948 1046 949)
3(949 1046 1047)
3(949 1047 950)
3(950 1047 1048)
3(950 1048 951)
3(951 1048 1049)
3(951 1049 952)
3(952 1049 1050)
3(952 1050 953)
3(953 1050 1051)
3(953 1051 954)
3(954 1051 1052)
3(954 1052 955)
3(955 1052 1053)
3(955 1053 956)
3(956 1053 1054)
3(956 1054 957)
3(957 1054 1055)
3(957 1055 958)
3(958 1055 1056)
3(958 1056 959)
3(959 1056 1057)
3(959 1057 960)
3(960 1057 1058)
3(960 1058 961)
3(961 1058 1059)
3(961 1059 962)
3(962 1059 1060)
3(962 1060 963)
3(963 1060 1061)
3(963 1061 964)
3(964 1061 1062)
3(964 1062 965)
3(965 1062 1063)
3(965 1063 966)
3(966 1063 1064)
3(966 1064 967)
3(967 1064 1065)
3(967 1065 968)
3(968 1065 1066)
3(968 1066 969)
3(969 1066 1067)
3(969 1067 970)
3(970 1067 1068)
3(970 1068 971)
3(971 1068 1069)
3(971 1069 972)
3(972 1069 1070)
3(972 1070 973)
3(973 1070 1071)
3(973 1071 974)
3(974 1071 1072)
3(974 1072 975)
3(975 1072 1073)
3(975 1073 976)
3(976 1073 1074)
3(976 1074 977)
3(977 1074 1075)
3(977 1075 978)
3(978 1075 1076)
3(978 1076 979)
3(979 1076 1077)
3(979 1077 980)
3(980 1077 1078)
3(980 1078 981)
3(981 1078 1079)
3(981 1079 982)
3(982 1079 1080)
3(982 1080 983)
3(983 1080 1081)
3(983 1081 9)
3(9 1081 10)
3(206 207 984)
3(984 207 1082)
3(984 1082 985)
3(985 1082 1083)
3(985 1083 986)
3(986 1083 1084)
3(986 1084 987)
3(987 1084 1085)
3(987 1085 988)
3(988 1085 1086)
3(988 1086 989)
3(989 1086 1087)
3(989 1087 990)
3(990 1087 1088)
3(990 1088 991)
3(991 1088 1089)
3(991 1089 992)
3(992 1089 1090)
3(992 1090 993)
3(993 1090 1091)
3(993 1091 994)
3(994 1091 1092)
3(994 1092 995)
3(995 1092 1093)
3(995 1093 996)
3(996 1093 1094)
3(996 1094 997)
3(997 1094 1095)
3(997 1095 998)
3(998 1095 1096)
3(998 1096 999)
3(999 1096 1097)
3(999 1097 1000)
3(1000 1097 1098)
3(1000 1098 1001)
3(1001 1098 1099)
3(1001 1099 1002)
3(1002 1099 1100)
3(1002 1100 1003)
3(1003 1100 1101)
3(1003 1101 1004)
3(1004 1101 1102)
3(1004 1102 1005)
3(1005 1102 1103)
3(1005 1103 1006)
3(1006 1103 1104)
3(1006 1104 1007)
3(1007 1104 1105)
3(1007 1105 1008)
3(1008 1105 1106)
3(1008 1106 1009)
3(1009 1106 1107)
3(1009 1107 1010)
3(1010 1107 1108)
3(1010 1108 1011)
3(1011 1108 1109)
3(1011 1109 1012)
3(1012 1109 1110)
3(1012 1110 1013)
3(1013 1110 1111)
3(1013 1111 1014)
3(1014 1111 1112)
3(1014 1112 1015)
3(1015 1112 1113)
3(1015 1113 1016)
3(1016 1113 1114)
3(1016 1114 1017)
3(1017 1114 1115)
3(1017 1115 1018)
3(1018 1115 1116)
3(1018 1116 1019)
3(1019 1116 1117)
3(1019 1117 1020)
3(1020 1117 1118)
3(1020 1118 1021)
3(1021 1118 1119)
3(1021 1119 1022)
3(1022 1119 1120)
3(1022 1120 1023)
3(1023 1120 1121)
3(1023 1121 1024)
3(1024 1121 1122)
3(1024 1122 1025)
3(1025 1122 1123)
3(1025 1123 1026)
3(1026 1123 1124)
3(1026 1124 1027)
3(1027 1124 1125)
3(1027 1125 1028)
3(1028 1125 1126)
3(1028 1126 1029)
3(1029 1126 1127)
3(1029 1127 1030)
3(1030 1127 1128)
3(1030 1128 1031)
3(1031 1128 1129)
3(1031 1129 1032)
3(1032 1129 1130)
3(1032 1130 1033)
3(1033 1130 1131)
3(1033 1131 1034)
3(1034 1131 1132)
3(1034 1132 1035)
3(1035 1132 1133)
3(1035 1133 1036)
3(1036 1133 1134)
3(1036 1134 1037)
3(1037 1134 1135)
3(1037 1135 1038)
3(1038 1135 1136)
3(1038 1136 1039)
3(1039 1136 1137)
3(1039 1137 1040)
3(1040 1137 1138)
3(1040 1138 1041)
3(1041 1138 1139)
3(1041 1139 1042)
3(1042 1139 1140)
3(1042 1140 1043)
3(1043 1140 1141)
3(1043 1141 1044)
3(1044 1141 1142)
3(1044 1142 1045)
3(1045 1142 1143)
3(1045 1143 1046)
3(1046 1143 1144)
3(1046 1144 1047)
3(1047 1144 1145)
3(1047 1145 1048)
3(1048 1145 1146)
3(1048 1146 1049)
3(1049 1146 1147)
3(1049 1147 1050)
3(1050 1147 1148)
3(1050 1148 1051)
3(1051 1148 1149)
3(1051 1149 1052)
3(1052 1149 1150)
3(1052 1150 1053)
3(1053 1150 1151)
3(1053 1151 1054)
3(1054 1151 1152)
3(1054 1152 1055)
3(1055 1152 1153)
3(1055 1153 1056)
3(1056 1153 1154)
3(1056 1154 1057)
3(1057 1154 1155)
3(1057 1155 1058)
3(1058 1155 1156)
3(1058 1156 1059)
3(1059 1156 1157)
3(1059 1157 1060)
3(1060 1157 1158)
3(1060 1158 1061)
3(1061 1158 1159)
3(1061 1159 1062)
3(1062 1159 1160)
3(1062 1160 1063)
3(1063 1160 1161)
3(1063 1161 1064)
3(1064 1161 1162)
3(1064 1162 1065)
3(1065 1162 1163)
3(1065 1163 1066)
3(1066 1163 1164)
3(1066 1164 1067)
3(1067 1164 1165)
3(1067 1165 1068)
3(1068 1165 1166)
3(1068 1166 1069)
3(1069 1166 1167)
3(1069 1167 1070)
3(1070 1167 1168)
3(1070 1168 1071)
3(1071 1168 1169)
3(1071 1169 1072)
3(1072 1169 1170)
3(1072 1170 1073)
3(1073 1170 1171)
3(1073 1171 1074)
3(1074 1171 1172)
3(1074 1172 1075)
3(1075 1172 1173)
3(1075 1173 1076)
3(1076 1173 1174)
3(1076 1174 1077)
3(1077 1174 1175)
3(1077 1175 1078)
3(1078 1175 1176)
3(1078 1176 1079)
3(1079 1176 1177)
3(1079 1177 1080)
3(1080 1177 1178)
3(1080 1178 1081)
3(1081 1178 1179)
3(1081 1179 10)
3(10 1179 11)
3(207 208 1082)
3(1082 208 1180)
3(1082 1180 1083)
3(1083 1180 1181)
3(1083 1181 1084)
3(1084 1181 1182)
3(1084 1182 1085)
3(1085 1182 1183)
3(1085 1183 1086)
3(1086 1183 1184)
3(1086 1184 1087)
3(1087 1184 1185)
3(1087 1185 1088)
3(1088 1185 1186)
3(1088 1186 1089)
3(1089 1186 1187)
3(1089 1187 1090)
3(1090 1187 1188)
3(1090 1188 1091)
3(1091 1188 1189)
3(1091 1189 1092)
3(1092 1189 1190)
3(1092 1190 1093)
3(1093 1190 1191)
3(1093 1191 1094)
3(1094 1191 1192)
3(1094 1192 1095)
3(1095 1192 1193)
3(1095 1193 1096)
3(1096 1193 1194)
3(1096 1194 1097)
3(1097 1194 1195)
3(1097 1195 1098)
3(1098 1195 1196)
3(1098 1196 1099)
3(1099 1196 1197)
3(1099 1197 1100)
3(1100 1197 1198)
3(1100 1198 1101)
3(1101 1198 1199)
3(1101 1199 1102)
3(1102 1199 1200)
3(1102 1200 1103)
3(1103 1200 1201)
3(1103 1201 1104)
3(1104 1201 1202)
3(1104 1202 1105)
3(1105 1202 1203)
3(1105 1203 1106)
3(1106 1203 1204)
3(1106 1204 1107)
3(1107 1204 1205)
3(1107 1205 1108)
3(1108 1205 1206)
3(1108 1206 1109)
3(1109 1206 1207)
3(1109 1207 1110)
3(1110 1207 1208)
3(1110 1208 1111)
3(1111 1208 1209)
3(1111 1209 1112)
3(1112 1209 1210)
3(1112 1210 1113)
3(1113 1210 1211)
3(1113 1211 1114)
3(1114 1211 1212)
3(1114 1212 1115)
3(1115 1212 1213)
3(1115 1213 1116)
3(1116 1213 1214)
3(1116 1214 1117)
3(1117 1214 1215)
3(1117 1215 1118)
3(1118 1215 1216)
3(1118 1216 1119)
3(1119 1216 1217)
3(1119 1217 1120)
3(1120 1217 1218)
3(1120 1218 1121)
3(1121 1218 1219)
3(1121 1219 1122)
3(1122 1219 1220)
3(1122 1220 1123)
3(1123 1220 1221)
3(1123 1221 1124)
3(1124 1221 1222)
3(1124 1222 1125)
3(1125 1222 1223)
3(1125 1223 1126)
3(1126 1223 1224)
3(1126 1224 1127)
3(1127 1224 1225)
3(1127 1225 1128)
3(1128 1225 1226)
3(1128 1226 1129)
3(1129 1226 1227)
3(1129 1227 1130)
3(1130 1227 1228)
3(1130 1228 1131)
3(1131 1228 1229)
3(1131 1229 1132)
3(1132 1229 1230)
3(1132 1230 1133)
3(1133 1230 1231)
3(1133 1231 1134)
3(1134 1231 1232)
3(1134 1232 1135)
3(1135 1232 1233)
3(1135 1233 1136)
3(1136 1233 1234)
3(1136 1234 1137)
3(1137 1234 1235)
3(1137 1235 1138)
3(1138 1235 1236)
3(1138 1236 1139)
3(1139 1236 1237)
3(1139 1237 1140)
3(1140 1237 1238)
3(1140 1238 1141)
3(1141 1238 1239)
3(1141 1239 1142)
3(1142 1239 1240)
3(1142 1240 1143)
3(1143 1240 1241)
3(1143 1241 1144)
3(1144 1241 1242)
3(1144 1242 1145)
3(1145 1242 1243)
3(1145 1243 1146)
3(1146 1243 1244)
3(1146 1244 1147)
3(1147 1244 1245)
3(1147 1245 1148)
3(1148 1245 1246)
3(1148 1246 1149)
3(1149 1246 1247)
3(1149 1247 1150)
3(1150 1247 1248)
3(1150 1248 1151)
3(1151 1248 1249)
3(1151 1249 1152)
3(1152 1249 1250)
3(1152 1250 1153)
3(1153 1250 1251)
3(1153 1251 1154)
3(1154 1251 1252)
3(1154 1252 1155)
3(1155 1252 1253)
3(1155 1253 1156)
3(1156 1253 1254)
3(1156 1254 1157)
3(1157 1254 1255)
3(1157 1255 1158)
3(1158 1255 1256)
3(1158 1256 1159)
3(1159 1256 1257)
3(1159 1257 1160)
3(1160 1257 1258)
3(1160 1258 1161)
3(1161 1258 1259)
3(1161 1259 1162)
3(1162 1259 1260)
3(1162 1260 1163)
3(1163 1260 1261)
3(1163 1261 1164)
3(1164 1261 1262)
3(1164 1262 1165)
3(1165 1262 1263)
3(1165 1263 1166)
3(1166 1263 1264)
3(1166 1264 1167)
3(1167 1264 1265)
3(1167 1265 1168)
3(1168 1265 1266)
3(1168 1266 1169)
3(1169 1266 1267)
3(1169 1267 1170)
3(1170 1267 1268)
3(1170 1268 1171)
3(1171 1268 1269)
3(1171 1269 1172)
3(1172 1269 1270)
3(1172 1270 1173)
3(1173 1270 1271)
3(1173 1271 1174)
3(1174 1271 1272)
3(1174 1272 1175)
3(1175 1272 1273)
3(1175 1273 1176)
3(1176 1273 1274)
3(1176 1274 1177)
3(1177 1274 1275)
3(1177 1275 1178)
3(1178 1275 1276)
3(1178 1276 1179)
3(1179 1276 1277)
3(1179 1277 11)
3(11 1277 12)
3(208 209 1180)
3(1180 209 1278)
3(1180 1278 1181)
3(1181 1278 1279)
3(1181 1279 1182)
3(1182 1279 1280)
3(1182 1280 1183)
3(1183 1280 1281)
3(1183 1281 1184)
3(1184 1281 1282)
3(1184 1282 1185)
3(1185 1282 1283)
3(1185 1283 1186)
3(1186 1283 1284)
3(1186 1284 1187)
3(1187 1284 1285)
3(1187 1285 1188)
3(1188 1285 1286)
3(1188 1286 1189)
3(1189 1286 1287)
3(1189 1287 1190)
3(1190 1287 1288)
3(1190 1288 1191)
3(1191 1288 1289)
3(1191 1289 1192)
3(1192 1289 1290)
3(1192 1290 1193)
3(1193 1290 1291)
3(1193 1291 1194)
3(1194 1291 1292)
3(1194 1292 1195)
3(1195 1292 1293)
3(1195 1293 1196)
3(1196 1293 1294)
3(1196 1294 1197)
3(1197 1294 1295)
3(1197 1295 1198)
3(1198 1295 1296)
3(1198 1296 1199)
3(1199 1296 1297)
3(1199 1297 1200)
3(1200 1297 1298)
3(1200 1298 1201)
3(1201 1298 1299)
3(1201 1299 1202)
3(1202 1299 1300)
3(1202 1300 1203)
3(1203 1300 1301)
3(1203 1301 1204)
3(1204 1301 1302)
3(1204 1302 1205)
3(1205 1302 1303)
3(1205 1303 1206)
3(1206 1303 1304)
3(1206 1304 1207)
3(1207 1304 1305)
3(1207 1305 1208)
3(1208 1305 1306)
3(1208 1306 1209)
3(1209 1306 1307)
3(1209 1307 1210)
3(1210 1307 1308)
3(1210 1308 1211)
3(1211 1308 1309)