/*--------------------------------*- C++ -*----------------------------------*\
| =========                 |                                                 |
| \\      /  F ield         | OpenFOAM: The Open Source CFD Toolbox           |
|  \\    /   O peration     | Version:  v1806                                 |
|   \\  /    A nd           | Web:      www.OpenFOAM.com                      |
|    \\/     M anipulation  |                                                 |
\*---------------------------------------------------------------------------*/
FoamFile
{
    version     2.0;
    format      ascii;
    class       vectorField;
    object      currentcloudofpoints;
}
// * * * * * * * * * * * * * * * * * * * * * * * * * * * * * * * * * * * * * //

9
(
(0.25 0.5 0.05)
(0.25 0.25 0.05)
(0.5 0.25 0.05)
(0.75 0.25 0.05)
(0.75 0.5 0.05)
(0.75 0.75 0.05) 
(0.5 0.75 0.05)
(0.25 0.75 0.05)
(0.5 0.5 0.05)
)

// ************************************************************************* //
